## BTN for MT3DMS, generated by Flopy.
##
NOWETDRYPRINT DRYCELL
         7       244       232       232         1         1         1
D  M  KG    
T T T T T 
 1 1 1 1 1 1 1
      2001         1         (232E15.6)        -1 #delr
      2002         1         (244E15.6)        -1 #delc
      2003         1         (232E15.6)         0 #htop
      2004         1         (232E15.6)        -1 #dz_layer_0
      2005         1         (232E15.6)        -1 #dz_layer_1
      2006         1         (232E15.6)        -1 #dz_layer_2
      2007         1         (232E15.6)        -1 #dz_layer_3
      2008         1         (232E15.6)        -1 #dz_layer_4
      2009         1         (232E15.6)        -1 #dz_layer_5
      2010         1         (232E15.6)        -1 #dz_layer_6
      2011         1         (232E15.6)        -1 #prsity_layer_0
      2012         1         (232E15.6)        -1 #prsity_layer_1
      2013         1         (232E15.6)        -1 #prsity_layer_2
      2014         1         (232E15.6)        -1 #prsity_layer_3
      2015         1         (232E15.6)        -1 #prsity_layer_4
      2016         1         (232E15.6)        -1 #prsity_layer_5
      2017         1         (232E15.6)        -1 #prsity_layer_6
      2018         1           (232I10)        -1 #icbund_layer_0
      2019         1           (232I10)        -1 #icbund_layer_1
      2020         1           (232I10)        -1 #icbund_layer_2
      2021         1           (232I10)        -1 #icbund_layer_3
      2022         1           (232I10)        -1 #icbund_layer_4
      2023         1           (232I10)        -1 #icbund_layer_5
      2024         1           (232I10)        -1 #icbund_layer_6
      2025      1000         (232E15.6)        -1 #sconc1_layer_0
      2026      1000         (232E15.6)        -1 #sconc1_layer_1
      2027      1000         (232E15.6)        -1 #sconc1_layer_2
      2028      1000         (232E15.6)        -1 #sconc1_layer_3
      2029      1000         (232E15.6)        -1 #sconc1_layer_4
      2030      1000         (232E15.6)        -1 #sconc1_layer_5
      2031      1000         (232E15.6)        -1 #sconc1_layer_6
    -1E+00  1.00E-07
         0         0         0         0         T
       133
1.0000E-023.1000E+016.0000E+019.1000E+011.2100E+021.5200E+021.8200E+022.1300E+02
2.4400E+022.7400E+023.0500E+023.3500E+023.6600E+023.9700E+024.2500E+024.5600E+02
4.8600E+025.1700E+025.4700E+025.7800E+026.0900E+026.3900E+026.7000E+027.0000E+02
7.3100E+027.6200E+027.9000E+028.2100E+028.5100E+028.8200E+029.1200E+029.4300E+02
9.7400E+021.0040E+031.0350E+031.0650E+031.0960E+031.1270E+031.1550E+031.1860E+03
1.2160E+031.2470E+031.2770E+031.3080E+031.3390E+031.3690E+031.4000E+031.4300E+03
1.4610E+031.4920E+031.5210E+031.5520E+031.5820E+031.6130E+031.6430E+031.6740E+03
1.7050E+031.7350E+031.7660E+031.7960E+031.8270E+031.8580E+031.8860E+031.9170E+03
1.9470E+031.9780E+032.0080E+032.0390E+032.0700E+032.1000E+032.1310E+032.1610E+03
2.1920E+032.2230E+032.2510E+032.2820E+032.3120E+032.3430E+032.3730E+032.4040E+03
2.4350E+032.4650E+032.4960E+032.5260E+032.5570E+032.5880E+032.6160E+032.6470E+03
2.6770E+032.7080E+032.7380E+032.7690E+032.8000E+032.8300E+032.8610E+032.8910E+03
2.9220E+032.9530E+032.9820E+033.0130E+033.0430E+033.0740E+033.1040E+033.1350E+03
3.1660E+033.1960E+033.2270E+033.2570E+033.2880E+033.3190E+033.3470E+033.3780E+03
3.4080E+033.4390E+033.4690E+033.5000E+033.5310E+033.5610E+033.5920E+033.6220E+03
3.6530E+033.6840E+033.7120E+033.7430E+033.7730E+033.8040E+033.8340E+033.8650E+03
3.8960E+033.9260E+033.9570E+033.9870E+034.0180E+03
         0         0
         T       100
        31         1      1.01  
       0.1   9999999      1.02         2
        29         1      1.01  
       0.1   9999999      1.02         2
        31         1      1.01  
       0.1   9999999      1.02         2
        30         1      1.01  
       0.1   9999999      1.02         2
        31         1      1.01  
       0.1   9999999      1.02         2
        30         1      1.01  
       0.1   9999999      1.02         2
        31         1      1.01  
       0.1   9999999      1.02         2
        31         1      1.01  
       0.1   9999999      1.02         2
        30         1      1.01  
       0.1   9999999      1.02         2
        31         1      1.01  
       0.1   9999999      1.02         2
        30         1      1.01  
       0.1   9999999      1.02         2
        31         1      1.01  
       0.1   9999999      1.02         2
        31         1      1.01  
       0.1   9999999      1.02         2
        28         1      1.01  
       0.1   9999999      1.02         2
        31         1      1.01  
       0.1   9999999      1.02         2
        30         1      1.01  
       0.1   9999999      1.02         2
        31         1      1.01  
       0.1   9999999      1.02         2
        30         1      1.01  
       0.1   9999999      1.02         2
        31         1      1.01  
       0.1   9999999      1.02         2
        31         1      1.01  
       0.1   9999999      1.02         2
        30         1      1.01  
       0.1   9999999      1.02         2
        31         1      1.01  
       0.1   9999999      1.02         2
        30         1      1.01  
       0.1   9999999      1.02         2
        31         1      1.01  
       0.1   9999999      1.02         2
        31         1      1.01  
       0.1   9999999      1.02         2
        28         1      1.01  
       0.1   9999999      1.02         2
        31         1      1.01  
       0.1   9999999      1.02         2
        30         1      1.01  
       0.1   9999999      1.02         2
        31         1      1.01  
       0.1   9999999      1.02         2
        30         1      1.01  
       0.1   9999999      1.02         2
        31         1      1.01  
       0.1   9999999      1.02         2
        31         1      1.01  
       0.1   9999999      1.02         2
        30         1      1.01  
       0.1   9999999      1.02         2
        31         1      1.01  
       0.1   9999999      1.02         2
        30         1      1.01  
       0.1   9999999      1.02         2
        31         1      1.01  
       0.1   9999999      1.02         2
        31         1      1.01  
       0.1   9999999      1.02         2
        28         1      1.01  
       0.1   9999999      1.02         2
        31         1      1.01  
       0.1   9999999      1.02         2
        30         1      1.01  
       0.1   9999999      1.02         2
        31         1      1.01  
       0.1   9999999      1.02         2
        30         1      1.01  
       0.1   9999999      1.02         2
        31         1      1.01  
       0.1   9999999      1.02         2
        31         1      1.01  
       0.1   9999999      1.02         2
        30         1      1.01  
       0.1   9999999      1.02         2
        31         1      1.01  
       0.1   9999999      1.02         2
        30         1      1.01  
       0.1   9999999      1.02         2
        31         1      1.01  
       0.1   9999999      1.02         2
        31         1      1.01  
       0.1   9999999      1.02         2
        29         1      1.01  
       0.1   9999999      1.02         2
        31         1      1.01  
       0.1   9999999      1.02         2
        30         1      1.01  
       0.1   9999999      1.02         2
        31         1      1.01  
       0.1   9999999      1.02         2
        30         1      1.01  
       0.1   9999999      1.02         2
        31         1      1.01  
       0.1   9999999      1.02         2
        31         1      1.01  
       0.1   9999999      1.02         2
        30         1      1.01  
       0.1   9999999      1.02         2
        31         1      1.01  
       0.1   9999999      1.02         2
        30         1      1.01  
       0.1   9999999      1.02         2
        31         1      1.01  
       0.1   9999999      1.02         2
        31         1      1.01  
       0.1   9999999      1.02         2
        28         1      1.01  
       0.1   9999999      1.02         2
        31         1      1.01  
       0.1   9999999      1.02         2
        30         1      1.01  
       0.1   9999999      1.02         2
        31         1      1.01  
       0.1   9999999      1.02         2
        30         1      1.01  
       0.1   9999999      1.02         2
        31         1      1.01  
       0.1   9999999      1.02         2
        31         1      1.01  
       0.1   9999999      1.02         2
        30         1      1.01  
       0.1   9999999      1.02         2
        31         1      1.01  
       0.1   9999999      1.02         2
        30         1      1.01  
       0.1   9999999      1.02         2
        31         1      1.01  
       0.1   9999999      1.02         2
        31         1      1.01  
       0.1   9999999      1.02         2
        28         1      1.01  
       0.1   9999999      1.02         2
        31         1      1.01  
       0.1   9999999      1.02         2
        30         1      1.01  
       0.1   9999999      1.02         2
        31         1      1.01  
       0.1   9999999      1.02         2
        30         1      1.01  
       0.1   9999999      1.02         2
        31         1      1.01  
       0.1   9999999      1.02         2
        31         1      1.01  
       0.1   9999999      1.02         2
        30         1      1.01  
       0.1   9999999      1.02         2
        31         1      1.01  
       0.1   9999999      1.02         2
        30         1      1.01  
       0.1   9999999      1.02         2
        31         1      1.01  
       0.1   9999999      1.02         2
        31         1      1.01  
       0.1   9999999      1.02         2
        28         1      1.01  
       0.1   9999999      1.02         2
        31         1      1.01  
       0.1   9999999      1.02         2
        30         1      1.01  
       0.1   9999999      1.02         2
        31         1      1.01  
       0.1   9999999      1.02         2
        30         1      1.01  
       0.1   9999999      1.02         2
        31         1      1.01  
       0.1   9999999      1.02         2
        31         1      1.01  
       0.1   9999999      1.02         2
        30         1      1.01  
       0.1   9999999      1.02         2
        31         1      1.01  
       0.1   9999999      1.02         2
        30         1      1.01  
       0.1   9999999      1.02         2
        31         1      1.01  
       0.1   9999999      1.02         2
        31         1      1.01  
       0.1   9999999      1.02         2
        29         1      1.01  
       0.1   9999999      1.02         2
        31         1      1.01  
       0.1   9999999      1.02         2
        30         1      1.01  
       0.1   9999999      1.02         2
        31         1      1.01  
       0.1   9999999      1.02         2
        30         1      1.01  
       0.1   9999999      1.02         2
        31         1      1.01  
       0.1   9999999      1.02         2
        31         1      1.01  
       0.1   9999999      1.02         2
        30         1      1.01  
       0.1   9999999      1.02         2
        31         1      1.01  
       0.1   9999999      1.02         2
        30         1      1.01  
       0.1   9999999      1.02         2
        31         1      1.01  
       0.1   9999999      1.02         2
        31         1      1.01  
       0.1   9999999      1.02         2
        28         1      1.01  
       0.1   9999999      1.02         2
        31         1      1.01  
       0.1   9999999      1.02         2
        30         1      1.01  
       0.1   9999999      1.02         2
        31         1      1.01  
       0.1   9999999      1.02         2
        30         1      1.01  
       0.1   9999999      1.02         2
        31         1      1.01  
       0.1   9999999      1.02         2
        31         1      1.01  
       0.1   9999999      1.02         2
        30         1      1.01  
       0.1   9999999      1.02         2
        31         1      1.01  
       0.1   9999999      1.02         2
        30         1      1.01  
       0.1   9999999      1.02         2
        31         1      1.01  
       0.1   9999999      1.02         2
        31         1      1.01  
       0.1   9999999      1.02         2
