# RCH package for MODFLOW-2005 generated by Flopy 3.3.6
         3        50
         1        -1 
OPEN/CLOSE                    ./rch/rch_91_6.ref               1    (FREE)    -1 
         1        -1 
OPEN/CLOSE                    ./rch/rch_91_7.ref               1    (FREE)    -1 
         1        -1 
OPEN/CLOSE                    ./rch/rch_91_8.ref               1    (FREE)    -1 
         1        -1 
OPEN/CLOSE                    ./rch/rch_91_9.ref               1    (FREE)    -1 
         1        -1 
OPEN/CLOSE                    ./rch/rch_91_10.ref               1    (FREE)    -1 
         1        -1 
OPEN/CLOSE                    ./rch/rch_91_11.ref               1    (FREE)    -1 
         1        -1 
OPEN/CLOSE                    ./rch/rch_91_12.ref               1    (FREE)    -1 
         1        -1 
OPEN/CLOSE                    ./rch/rch_91_13.ref               1    (FREE)    -1 
         1        -1 
OPEN/CLOSE                    ./rch/rch_91_14.ref               1    (FREE)    -1 
         1        -1 
OPEN/CLOSE                    ./rch/rch_91_15.ref               1    (FREE)    -1 
         1        -1 
OPEN/CLOSE                    ./rch/rch_91_16.ref               1    (FREE)    -1 
         1        -1 
OPEN/CLOSE                    ./rch/rch_91_17.ref               1    (FREE)    -1 
         1        -1 
OPEN/CLOSE                    ./rch/rch_91_18.ref               1    (FREE)    -1 
         1        -1 
OPEN/CLOSE                    ./rch/rch_91_19.ref               1    (FREE)    -1 
         1        -1 
OPEN/CLOSE                    ./rch/rch_91_20.ref               1    (FREE)    -1 
         1        -1 
OPEN/CLOSE                    ./rch/rch_91_21.ref               1    (FREE)    -1 
         1        -1 
OPEN/CLOSE                    ./rch/rch_91_22.ref               1    (FREE)    -1 
         1        -1 
OPEN/CLOSE                    ./rch/rch_91_23.ref               1    (FREE)    -1 
         1        -1 
OPEN/CLOSE                    ./rch/rch_91_24.ref               1    (FREE)    -1 
         1        -1 
OPEN/CLOSE                    ./rch/rch_91_25.ref               1    (FREE)    -1 
         1        -1 
OPEN/CLOSE                    ./rch/rch_91_26.ref               1    (FREE)    -1 
         1        -1 
OPEN/CLOSE                    ./rch/rch_91_27.ref               1    (FREE)    -1 
         1        -1 
OPEN/CLOSE                    ./rch/rch_91_28.ref               1    (FREE)    -1 
         1        -1 
OPEN/CLOSE                    ./rch/rch_91_29.ref               1    (FREE)    -1 
         1        -1 
OPEN/CLOSE                    ./rch/rch_91_30.ref               1    (FREE)    -1 
         1        -1 
OPEN/CLOSE                    ./rch/rch_91_31.ref               1    (FREE)    -1 
         1        -1 
OPEN/CLOSE                    ./rch/rch_91_32.ref               1    (FREE)    -1 
         1        -1 
OPEN/CLOSE                    ./rch/rch_91_33.ref               1    (FREE)    -1 
         1        -1 
OPEN/CLOSE                    ./rch/rch_91_34.ref               1    (FREE)    -1 
         1        -1 
OPEN/CLOSE                    ./rch/rch_91_35.ref               1    (FREE)    -1 
         1        -1 
OPEN/CLOSE                    ./rch/rch_91_36.ref               1    (FREE)    -1 
         1        -1 
OPEN/CLOSE                    ./rch/rch_91_37.ref               1    (FREE)    -1 
         1        -1 
OPEN/CLOSE                    ./rch/rch_91_38.ref               1    (FREE)    -1 
         1        -1 
OPEN/CLOSE                    ./rch/rch_91_39.ref               1    (FREE)    -1 
         1        -1 
OPEN/CLOSE                    ./rch/rch_91_40.ref               1    (FREE)    -1 
         1        -1 
OPEN/CLOSE                    ./rch/rch_91_41.ref               1    (FREE)    -1 
         1        -1 
OPEN/CLOSE                    ./rch/rch_91_42.ref               1    (FREE)    -1 
         1        -1 
OPEN/CLOSE                    ./rch/rch_91_43.ref               1    (FREE)    -1 
         1        -1 
OPEN/CLOSE                    ./rch/rch_91_44.ref               1    (FREE)    -1 
         1        -1 
OPEN/CLOSE                    ./rch/rch_91_45.ref               1    (FREE)    -1 
         1        -1 
OPEN/CLOSE                    ./rch/rch_91_46.ref               1    (FREE)    -1 
         1        -1 
OPEN/CLOSE                    ./rch/rch_91_47.ref               1    (FREE)    -1 
         1        -1 
OPEN/CLOSE                    ./rch/rch_91_48.ref               1    (FREE)    -1 
         1        -1 
OPEN/CLOSE                    ./rch/rch_91_49.ref               1    (FREE)    -1 
         1        -1 
OPEN/CLOSE                    ./rch/rch_91_50.ref               1    (FREE)    -1 
         1        -1 
OPEN/CLOSE                    ./rch/rch_91_51.ref               1    (FREE)    -1 
         1        -1 
OPEN/CLOSE                    ./rch/rch_91_52.ref               1    (FREE)    -1 
         1        -1 
OPEN/CLOSE                    ./rch/rch_91_53.ref               1    (FREE)    -1 
         1        -1 
OPEN/CLOSE                    ./rch/rch_91_54.ref               1    (FREE)    -1 
         1        -1 
OPEN/CLOSE                    ./rch/rch_91_55.ref               1    (FREE)    -1 
         1        -1 
OPEN/CLOSE                    ./rch/rch_91_56.ref               1    (FREE)    -1 
         1        -1 
OPEN/CLOSE                    ./rch/rch_91_57.ref               1    (FREE)    -1 
         1        -1 
OPEN/CLOSE                    ./rch/rch_91_58.ref               1    (FREE)    -1 
         1        -1 
OPEN/CLOSE                    ./rch/rch_91_59.ref               1    (FREE)    -1 
         1        -1 
OPEN/CLOSE                    ./rch/rch_91_60.ref               1    (FREE)    -1 
         1        -1 
OPEN/CLOSE                    ./rch/rch_91_61.ref               1    (FREE)    -1 
         1        -1 
OPEN/CLOSE                    ./rch/rch_91_62.ref               1    (FREE)    -1 
         1        -1 
OPEN/CLOSE                    ./rch/rch_91_63.ref               1    (FREE)    -1 
         1        -1 
OPEN/CLOSE                    ./rch/rch_91_64.ref               1    (FREE)    -1 
         1        -1 
OPEN/CLOSE                    ./rch/rch_91_65.ref               1    (FREE)    -1 
         1        -1 
OPEN/CLOSE                    ./rch/rch_91_66.ref               1    (FREE)    -1 
         1        -1 
OPEN/CLOSE                    ./rch/rch_91_67.ref               1    (FREE)    -1 
         1        -1 
OPEN/CLOSE                    ./rch/rch_91_68.ref               1    (FREE)    -1 
         1        -1 
OPEN/CLOSE                    ./rch/rch_91_69.ref               1    (FREE)    -1 
         1        -1 
OPEN/CLOSE                    ./rch/rch_91_70.ref               1    (FREE)    -1 
         1        -1 
OPEN/CLOSE                    ./rch/rch_91_71.ref               1    (FREE)    -1 
         1        -1 
OPEN/CLOSE                    ./rch/rch_91_72.ref               1    (FREE)    -1 
         1        -1 
OPEN/CLOSE                    ./rch/rch_91_73.ref               1    (FREE)    -1 
         1        -1 
OPEN/CLOSE                    ./rch/rch_91_74.ref               1    (FREE)    -1 
         1        -1 
OPEN/CLOSE                    ./rch/rch_91_75.ref               1    (FREE)    -1 
         1        -1 
OPEN/CLOSE                    ./rch/rch_91_76.ref               1    (FREE)    -1 
         1        -1 
OPEN/CLOSE                    ./rch/rch_91_77.ref               1    (FREE)    -1 
         1        -1 
OPEN/CLOSE                    ./rch/rch_91_78.ref               1    (FREE)    -1 
         1        -1 
OPEN/CLOSE                    ./rch/rch_91_79.ref               1    (FREE)    -1 
         1        -1 
OPEN/CLOSE                    ./rch/rch_91_80.ref               1    (FREE)    -1 
         1        -1 
OPEN/CLOSE                    ./rch/rch_91_81.ref               1    (FREE)    -1 
         1        -1 
OPEN/CLOSE                    ./rch/rch_91_82.ref               1    (FREE)    -1 
         1        -1 
OPEN/CLOSE                    ./rch/rch_91_83.ref               1    (FREE)    -1 
         1        -1 
OPEN/CLOSE                    ./rch/rch_91_84.ref               1    (FREE)    -1 
         1        -1 
OPEN/CLOSE                    ./rch/rch_91_85.ref               1    (FREE)    -1 
         1        -1 
OPEN/CLOSE                    ./rch/rch_91_86.ref               1    (FREE)    -1 
         1        -1 
OPEN/CLOSE                    ./rch/rch_91_87.ref               1    (FREE)    -1 
         1        -1 
OPEN/CLOSE                    ./rch/rch_91_88.ref               1    (FREE)    -1 
         1        -1 
OPEN/CLOSE                    ./rch/rch_91_89.ref               1    (FREE)    -1 
         1        -1 
OPEN/CLOSE                    ./rch/rch_91_90.ref               1    (FREE)    -1 
         1        -1 
OPEN/CLOSE                    ./rch/rch_91_91.ref               1    (FREE)    -1 
         1        -1 
OPEN/CLOSE                    ./rch/rch_91_92.ref               1    (FREE)    -1 
         1        -1 
OPEN/CLOSE                    ./rch/rch_91_93.ref               1    (FREE)    -1 
         1        -1 
OPEN/CLOSE                    ./rch/rch_91_94.ref               1    (FREE)    -1 
         1        -1 
OPEN/CLOSE                    ./rch/rch_91_95.ref               1    (FREE)    -1 
         1        -1 
OPEN/CLOSE                    ./rch/rch_91_96.ref               1    (FREE)    -1 
         1        -1 
OPEN/CLOSE                    ./rch/rch_91_97.ref               1    (FREE)    -1 
         1        -1 
OPEN/CLOSE                    ./rch/rch_91_98.ref               1    (FREE)    -1 
         1        -1 
OPEN/CLOSE                    ./rch/rch_91_99.ref               1    (FREE)    -1 
         1        -1 
OPEN/CLOSE                    ./rch/rch_91_100.ref               1    (FREE)    -1 
