# BAS6 package for MODFLOW-2005 generated by Flopy 3.3.6

OPEN/CLOSE            ./elev/ibnd_BC_1.inf               1     (FREE) -1 ibound_layer_0                
OPEN/CLOSE            ./elev/ibnd_BC_2.inf               1     (FREE) -1 ibound_layer_1                
OPEN/CLOSE            ./elev/ibnd_BC_3.inf               1     (FREE) -1 ibound_layer_2                
OPEN/CLOSE            ./elev/ibnd_BC_4.inf               1     (FREE) -1 ibound_layer_3                
OPEN/CLOSE            ./elev/ibnd_BC_5.inf               1     (FREE) -1 ibound_layer_4                
OPEN/CLOSE            ./elev/ibnd_BC_6.inf               1     (FREE) -1 ibound_layer_5                
OPEN/CLOSE            ./elev/ibnd_BC_7.inf               1     (FREE) -1 ibound_layer_6                
OPEN/CLOSE            ./elev/ibnd_BC_8.inf               1     (FREE) -1 ibound_layer_7                
    -999.0
OPEN/CLOSE              ./P2RBC_shd_2024_ly1.ref               1     (FREE) -1 strt_layer_0                  
OPEN/CLOSE              ./P2RBC_shd_2024_ly2.ref               1     (FREE) -1 strt_layer_1                  
OPEN/CLOSE              ./P2RBC_shd_2024_ly3.ref               1     (FREE) -1 strt_layer_2                  
OPEN/CLOSE              ./P2RBC_shd_2024_ly4.ref               1     (FREE) -1 strt_layer_3                  
OPEN/CLOSE              ./P2RBC_shd_2024_ly5.ref               1     (FREE) -1 strt_layer_4                  
OPEN/CLOSE              ./P2RBC_shd_2024_ly6.ref               1     (FREE) -1 strt_layer_5                  
OPEN/CLOSE              ./P2RBC_shd_2024_ly7.ref               1     (FREE) -1 strt_layer_6                  
OPEN/CLOSE              ./P2RBC_shd_2024_ly8.ref               1     (FREE) -1 strt_layer_7                  
