# MODFLOW2000 - Link-MT3DMS Package Input File
OUTPUT_FILE_NAME P2RBC.ftl
OUTPUT_FILE_UNIT 33
OUTPUT_FILE_HEADER Extended
OUTPUT_FILE_FORMAT Unformatted
