# DIS package for MODFLOW-2005 generated by Flopy 3.3.6
         8       133       188        101         4         2
  0  0  0  0  0  0  0  0
OPEN/CLOSE              delr.ref               1     (FREE) -1 delr
OPEN/CLOSE              delc.ref               1     (FREE) -1 delc
OPEN/CLOSE              model_top.ref               1     (FREE) -1 model_top
OPEN/CLOSE              botm_layer_1.ref               1     (FREE) -1 botm_layer_0
OPEN/CLOSE              botm_layer_2.ref               1     (FREE) -1 botm_layer_1
OPEN/CLOSE              botm_layer_3.ref               1     (FREE) -1 botm_layer_2
OPEN/CLOSE              botm_layer_4.ref               1     (FREE) -1 botm_layer_3
OPEN/CLOSE              botm_layer_5.ref               1     (FREE) -1 botm_layer_4
OPEN/CLOSE              botm_layer_6.ref               1     (FREE) -1 botm_layer_5
OPEN/CLOSE              botm_layer_7.ref               1     (FREE) -1 botm_layer_6
OPEN/CLOSE              botm_layer_8.ref               1     (FREE) -1 botm_layer_7
    365.25         5      1.01       Tr     #SP   1 2018
    365.25         5      1.01       Tr     #SP   2 2019
    365.25         5      1.01       Tr     #SP   3 2020
    365.25         5      1.01       Tr     #SP   4 2021
    365.25         5      1.01       Tr     #SP   5 2022
    365.25         5      1.01       Tr     #SP   6 2023
    365.25         5      1.01       Tr     #SP   7 2024
    365.25         5      1.01       Tr     #SP   8 2025
    365.25         5      1.01       Tr     #SP   9 2026
    365.25         5      1.01       Tr     #SP  10 2027
    365.25         5      1.01       Tr     #SP  11 2028
    365.25         5      1.01       Tr     #SP  12 2029
    365.25         5      1.01       Tr     #SP  13 2030
    365.25         5      1.01       Tr     #SP  14 2031
    365.25         5      1.01       Tr     #SP  15 2032
    365.25         5      1.01       Tr     #SP  16 2033
    365.25         5      1.01       Tr     #SP  17 2034
    365.25         5      1.01       Tr     #SP  18 2035
    365.25         5      1.01       Tr     #SP  19 2036
    365.25         5      1.01       Tr     #SP  20 2037
    365.25         5      1.01       Tr     #SP  21 2038
    365.25         5      1.01       Tr     #SP  22 2039
    365.25         5      1.01       Tr     #SP  23 2040
    365.25         5      1.01       Tr     #SP  24 2041
    365.25         5      1.01       Tr     #SP  25 2042
    365.25         5      1.01       Tr     #SP  26 2043
    365.25         5      1.01       Tr     #SP  27 2044
    365.25         5      1.01       Tr     #SP  28 2045
    365.25         5      1.01       Tr     #SP  29 2046
    365.25         5      1.01       Tr     #SP  30 2047
    365.25         5      1.01       Tr     #SP  31 2048
    365.25         5      1.01       Tr     #SP  32 2049
    365.25         5      1.01       Tr     #SP  33 2050
    365.25         5      1.01       Tr     #SP  34 2051
    365.25         5      1.01       Tr     #SP  35 2052
    365.25         5      1.01       Tr     #SP  36 2053
    365.25         5      1.01       Tr     #SP  37 2054
    365.25         5      1.01       Tr     #SP  38 2055
    365.25         5      1.01       Tr     #SP  39 2056
    365.25         5      1.01       Tr     #SP  40 2057
    365.25         5      1.01       Tr     #SP  41 2058
    365.25         5      1.01       Tr     #SP  42 2059
    365.25         5      1.01       Tr     #SP  43 2060
    365.25         5      1.01       Tr     #SP  44 2061
    365.25         5      1.01       Tr     #SP  45 2062
    365.25         5      1.01       Tr     #SP  46 2063
    365.25         5      1.01       Tr     #SP  47 2064
    365.25         5      1.01       Tr     #SP  48 2065
    365.25         5      1.01       Tr     #SP  49 2066
    365.25         5      1.01       Tr     #SP  50 2067
    365.25         5      1.01       Tr     #SP  51 2068
    365.25         5      1.01       Tr     #SP  52 2069
    365.25         5      1.01       Tr     #SP  53 2070
    365.25         5      1.01       Tr     #SP  54 2071
    365.25         5      1.01       Tr     #SP  55 2072
    365.25         5      1.01       Tr     #SP  56 2073
    365.25         5      1.01       Tr     #SP  57 2074
    365.25         5      1.01       Tr     #SP  58 2075
    365.25         5      1.01       Tr     #SP  59 2076
    365.25         5      1.01       Tr     #SP  60 2077
    365.25         5      1.01       Tr     #SP  61 2078
    365.25         5      1.01       Tr     #SP  62 2079
    365.25         5      1.01       Tr     #SP  63 2080  
    365.25         5      1.01       Tr     #SP  64 2081
    365.25         5      1.01       Tr     #SP  65 2082
    365.25         5      1.01       Tr     #SP  66 2083
    365.25         5      1.01       Tr     #SP  67 2084
    365.25         5      1.01       Tr     #SP  68 2085
    365.25         5      1.01       Tr     #SP  69 2086
    365.25         5      1.01       Tr     #SP  70 2087
    365.25         5      1.01       Tr     #SP  71 2088
    365.25         5      1.01       Tr     #SP  72 2089
    365.25         5      1.01       Tr     #SP  73 2090
    365.25         5      1.01       Tr     #SP  74 2091
    365.25         5      1.01       Tr     #SP  75 2092
    365.25         5      1.01       Tr     #SP  76 2093
    365.25         5      1.01       Tr     #SP  77 2094
    365.25         5      1.01       Tr     #SP  78 2095
    365.25         5      1.01       Tr     #SP  79 2096
    365.25         5      1.01       Tr     #SP  80 2097
    365.25         5      1.01       Tr     #SP  81 2098
    365.25         5      1.01       Tr     #SP  82 2099
  12783.75        20      1.01       Tr     #SP  83 2100
   5844.00        20      1.01       Tr     #SP  84 2135
 125280.75       100      1.01       Tr     #SP  85 2151
   8400.75        20      1.01       Tr     #SP  86 2494
   1095.75         5      1.01       Tr     #SP  87 2517
    365.25         5      1.01       Tr     #SP  88 2520
   1461.00        10      1.01       Tr     #SP  89 2521
    365.25         5      1.01       Tr     #SP  90 2525
    365.25         5      1.01       Tr     #SP  91 2526
    730.50         5      1.01       Tr     #SP  92 2527
    365.25         5      1.01       Tr     #SP  93 2529
   1095.75         5      1.01       Tr     #SP  94 2530
    730.50         5      1.01       Tr     #SP  95 2533
   2922.00        10      1.01       Tr     #SP  96 2535
   2556.75        10      1.01       Tr     #SP  97 2543
    365.25         5      1.01       Tr     #SP  98 2550
    365.25         5      1.01       Tr     #SP  99 2551
   6574.50        20      1.01       Tr     #SP 100 2552
 182990.25       300      1.01       Tr     #SP 101 2570-3070
