## BTN for MT3DMS, generated by Flopy.
##
NOWETDRYPRINT DRYCELL
         7       244       232       376         1         1         1
D  M  KG    
T T T T T 
 1 1 1 1 1 1 1
      2001         1         (232E15.6)        -1 #delr
      2002         1         (244E15.6)        -1 #delc
      2003         1         (232E15.6)         0 #htop
      2004         1         (232E15.6)        -1 #dz_layer_0
      2005         1         (232E15.6)        -1 #dz_layer_1
      2006         1         (232E15.6)        -1 #dz_layer_2
      2007         1         (232E15.6)        -1 #dz_layer_3
      2008         1         (232E15.6)        -1 #dz_layer_4
      2009         1         (232E15.6)        -1 #dz_layer_5
      2010         1         (232E15.6)        -1 #dz_layer_6
      2011         1         (232E15.6)        -1 #prsity_layer_0
      2012         1         (232E15.6)        -1 #prsity_layer_1
      2013         1         (232E15.6)        -1 #prsity_layer_2
      2014         1         (232E15.6)        -1 #prsity_layer_3
      2015         1         (232E15.6)        -1 #prsity_layer_4
      2016         1         (232E15.6)        -1 #prsity_layer_5
      2017         1         (232E15.6)        -1 #prsity_layer_6
      2018         1           (232I10)        -1 #icbund_layer_0
      2019         1           (232I10)        -1 #icbund_layer_1
      2020         1           (232I10)        -1 #icbund_layer_2
      2021         1           (232I10)        -1 #icbund_layer_3
      2022         1           (232I10)        -1 #icbund_layer_4
      2023         1           (232I10)        -1 #icbund_layer_5
      2024         1           (232I10)        -1 #icbund_layer_6
      2025      1000         (232E15.6)        -1 #sconc1_layer_0
      2026      1000         (232E15.6)        -1 #sconc1_layer_1
      2027      1000         (232E15.6)        -1 #sconc1_layer_2
      2028      1000         (232E15.6)        -1 #sconc1_layer_3
      2029      1000         (232E15.6)        -1 #sconc1_layer_4
      2030      1000         (232E15.6)        -1 #sconc1_layer_5
      2031      1000         (232E15.6)        -1 #sconc1_layer_6
    -1E+00  1.00E-07
         0         0         0         0         T
       127
       0.1     366.0     731.0    1096.0    1461.0    1827.0    2192.0    2557.0
    2922.0    3288.0    3653.0    4018.0    4383.0    4749.0    5114.0    5479.0
    5844.0    6210.0    6575.0    6940.0    7305.0    7671.0    8036.0    8401.0
    8766.0    9132.0    9497.0    9862.0   10227.0   10593.0   10958.0   11323.0
   11688.0   12054.0   12419.0   12784.0   13149.0   13515.0   13880.0   14245.0
   14610.0   14976.0   15341.0   15706.0   16071.0   16437.0   16802.0   17167.0
   17532.0   17898.0   18263.0   18628.0   18993.0   19359.0   19724.0   20089.0
   20454.0   20820.0   21185.0   21550.0   21915.0   22281.0   22646.0   23011.0
   23376.0   23742.0   24107.0   24472.0   24837.0   25203.0   25568.0   25933.0
   26298.0   26664.0   27029.0   27394.0   27759.0   28125.0   28490.0   28855.0
   29220.0   29586.0   29951.0   30316.0   30681.0   31047.0   31412.0   31777.0
   32142.0   32507.0   32872.0   33237.0   33602.0   33968.0   34333.0   34698.0
   35063.0   35429.0   35794.0   36159.0   36524.0   36890.0   37255.0   37620.0
   37985.0   38351.0   38716.0   39081.0   39446.0   39812.0   40177.0   40542.0
   40907.0   41273.0   41638.0   42003.0   42368.0   42734.0   43099.0   43464.0
   43829.0   44195.0   44560.0   44925.0   45290.0   45656.0   46021.0
         0         0
         T       100
        31         1      1.01
       0.1   9999999      1.02         2
        29         1      1.01
       0.1   9999999      1.02         2
        31         1      1.01
       0.1   9999999      1.02         2
        30         1      1.01
       0.1   9999999      1.02         2
        31         1      1.01
       0.1   9999999      1.02         2
        30         1      1.01
       0.1   9999999      1.02         2
        31         1      1.01
       0.1   9999999      1.02         2
        31         1      1.01
       0.1   9999999      1.02         2
        30         1      1.01
       0.1   9999999      1.02         2
        31         1      1.01
       0.1   9999999      1.02         2
        30         1      1.01
       0.1   9999999      1.02         2
        31         1      1.01
       0.1   9999999      1.02         2
        31         1      1.01
       0.1   9999999      1.02         2
        28         1      1.01
       0.1   9999999      1.02         2
        31         1      1.01
       0.1   9999999      1.02         2
        30         1      1.01
       0.1   9999999      1.02         2
        31         1      1.01
       0.1   9999999      1.02         2
        30         1      1.01
       0.1   9999999      1.02         2
        31         1      1.01
       0.1   9999999      1.02         2
        31         1      1.01
       0.1   9999999      1.02         2
        30         1      1.01
       0.1   9999999      1.02         2
        31         1      1.01
       0.1   9999999      1.02         2
        30         1      1.01
       0.1   9999999      1.02         2
        31         1      1.01
       0.1   9999999      1.02         2
        31         1      1.01
       0.1   9999999      1.02         2
        28         1      1.01
       0.1   9999999      1.02         2
        31         1      1.01
       0.1   9999999      1.02         2
        30         1      1.01
       0.1   9999999      1.02         2
        31         1      1.01
       0.1   9999999      1.02         2
        30         1      1.01
       0.1   9999999      1.02         2
        31         1      1.01
       0.1   9999999      1.02         2
        31         1      1.01
       0.1   9999999      1.02         2
        30         1      1.01
       0.1   9999999      1.02         2
        31         1      1.01
       0.1   9999999      1.02         2
        30         1      1.01
       0.1   9999999      1.02         2
        31         1      1.01
       0.1   9999999      1.02         2
        31         1      1.01
       0.1   9999999      1.02         2
        28         1      1.01
       0.1   9999999      1.02         2
        31         1      1.01
       0.1   9999999      1.02         2
        30         1      1.01
       0.1   9999999      1.02         2
        31         1      1.01
       0.1   9999999      1.02         2
        30         1      1.01
       0.1   9999999      1.02         2
        31         1      1.01
       0.1   9999999      1.02         2
        31         1      1.01
       0.1   9999999      1.02         2
        30         1      1.01
       0.1   9999999      1.02         2
        31         1      1.01
       0.1   9999999      1.02         2
        30         1      1.01
       0.1   9999999      1.02         2
        31         1      1.01
       0.1   9999999      1.02         2
        31         1      1.01
       0.1   9999999      1.02         2
        29         1      1.01
       0.1   9999999      1.02         2
        31         1      1.01
       0.1   9999999      1.02         2
        30         1      1.01
       0.1   9999999      1.02         2
        31         1      1.01
       0.1   9999999      1.02         2
        30         1      1.01
       0.1   9999999      1.02         2
        31         1      1.01
       0.1   9999999      1.02         2
        31         1      1.01
       0.1   9999999      1.02         2
        30         1      1.01
       0.1   9999999      1.02         2
        31         1      1.01
       0.1   9999999      1.02         2
        30         1      1.01
       0.1   9999999      1.02         2
        31         1      1.01
       0.1   9999999      1.02         2
        31         1      1.01
       0.1   9999999      1.02         2
        28         1      1.01
       0.1   9999999      1.02         2
        31         1      1.01
       0.1   9999999      1.02         2
        30         1      1.01
       0.1   9999999      1.02         2
        31         1      1.01
       0.1   9999999      1.02         2
        30         1      1.01
       0.1   9999999      1.02         2
        31         1      1.01
       0.1   9999999      1.02         2
        31         1      1.01
       0.1   9999999      1.02         2
        30         1      1.01
       0.1   9999999      1.02         2
        31         1      1.01
       0.1   9999999      1.02         2
        30         1      1.01
       0.1   9999999      1.02         2
        31         1      1.01
       0.1   9999999      1.02         2
        31         1      1.01
       0.1   9999999      1.02         2
        28         1      1.01
       0.1   9999999      1.02         2
        31         1      1.01
       0.1   9999999      1.02         2
        30         1      1.01
       0.1   9999999      1.02         2
        31         1      1.01
       0.1   9999999      1.02         2
        30         1      1.01
       0.1   9999999      1.02         2
        31         1      1.01
       0.1   9999999      1.02         2
        31         1      1.01
       0.1   9999999      1.02         2
        30         1      1.01
       0.1   9999999      1.02         2
        31         1      1.01
       0.1   9999999      1.02         2
        30         1      1.01
       0.1   9999999      1.02         2
        31         1      1.01
       0.1   9999999      1.02         2
        31         1      1.01
       0.1   9999999      1.02         2
        28         1      1.01
       0.1   9999999      1.02         2
        31         1      1.01
       0.1   9999999      1.02         2
        30         1      1.01
       0.1   9999999      1.02         2
        31         1      1.01
       0.1   9999999      1.02         2
        30         1      1.01
       0.1   9999999      1.02         2
        31         1      1.01
       0.1   9999999      1.02         2
        31         1      1.01
       0.1   9999999      1.02         2
        30         1      1.01
       0.1   9999999      1.02         2
        31         1      1.01
       0.1   9999999      1.02         2
        30         1      1.01
       0.1   9999999      1.02         2
        31         1      1.01
       0.1   9999999      1.02         2
        31         1      1.01
       0.1   9999999      1.02         2
        29         1      1.01
       0.1   9999999      1.02         2
        31         1      1.01
       0.1   9999999      1.02         2
        30         1      1.01
       0.1   9999999      1.02         2
        31         1      1.01
       0.1   9999999      1.02         2
        30         1      1.01
       0.1   9999999      1.02         2
        31         1      1.01
       0.1   9999999      1.02         2
        31         1      1.01
       0.1   9999999      1.02         2
        30         1      1.01
       0.1   9999999      1.02         2
        31         1      1.01
       0.1   9999999      1.02         2
        30         1      1.01
       0.1   9999999      1.02         2
        31         1      1.01
       0.1   9999999      1.02         2
        31         1      1.01
       0.1   9999999      1.02         2
        28         1      1.01
       0.1   9999999      1.02         2
        31         1      1.01
       0.1   9999999      1.02         2
        30         1      1.01
       0.1   9999999      1.02         2
        31         1      1.01
       0.1   9999999      1.02         2
        30         1      1.01
       0.1   9999999      1.02         2
        31         1      1.01
       0.1   9999999      1.02         2
        31         1      1.01
       0.1   9999999      1.02         2
        30         1      1.01
       0.1   9999999      1.02         2
        31         1      1.01
       0.1   9999999      1.02         2
        30         1      1.01
       0.1   9999999      1.02         2
        31         1      1.01
       0.1   9999999      1.02         2
        31         1      1.01
       0.1   9999999      1.02         2
        28         1      1.01
       0.1   9999999      1.02         2
        31         1      1.01
       0.1   9999999      1.02         2
        30         1      1.01
       0.1   9999999      1.02         2
        31         1      1.01
       0.1   9999999      1.02         2
        30         1      1.01
       0.1   9999999      1.02         2
        31         1      1.01
       0.1   9999999      1.02         2
        31         1      1.01
       0.1   9999999      1.02         2
        30         1      1.01
       0.1   9999999      1.02         2
        31         1      1.01
       0.1   9999999      1.02         2
        30         1      1.01
       0.1   9999999      1.02         2
        31         1      1.01
       0.1   9999999      1.02         2
        31         1      1.01
       0.1   9999999      1.02         2
        28         1      1.01
       0.1   9999999      1.02         2
        31         1      1.01
       0.1   9999999      1.02         2
        30         1      1.01
       0.1   9999999      1.02         2
        31         1      1.01
       0.1   9999999      1.02         2
        30         1      1.01
       0.1   9999999      1.02         2
        31         1      1.01
       0.1   9999999      1.02         2
        31         1      1.01
       0.1   9999999      1.02         2
        30         1      1.01
       0.1   9999999      1.02         2
        31         1      1.01
       0.1   9999999      1.02         2
        30         1      1.01
       0.1   9999999      1.02         2
        31         1      1.01
       0.1   9999999      1.02         2
        31         1      1.01
       0.1   9999999      1.02         2
        29         1      1.01
       0.1   9999999      1.02         2
        31         1      1.01
       0.1   9999999      1.02         2
        30         1      1.01
       0.1   9999999      1.02         2
        31         1      1.01
       0.1   9999999      1.02         2
        30         1      1.01
       0.1   9999999      1.02         2
        31         1      1.01
       0.1   9999999      1.02         2
        31         1      1.01
       0.1   9999999      1.02         2
        30         1      1.01
       0.1   9999999      1.02         2
        31         1      1.01
       0.1   9999999      1.02         2
        30         1      1.01
       0.1   9999999      1.02         2
        31         1      1.01
       0.1   9999999      1.02         2
        31         1      1.01
       0.1   9999999      1.02         2
        28         1      1.01
       0.1   9999999      1.02         2
        31         1      1.01
       0.1   9999999      1.02         2
        30         1      1.01
       0.1   9999999      1.02         2
        31         1      1.01
       0.1   9999999      1.02         2
        30         1      1.01
       0.1   9999999      1.02         2
        31         1      1.01
       0.1   9999999      1.02         2
        31         1      1.01
       0.1   9999999      1.02         2
        30         1      1.01
       0.1   9999999      1.02         2
        31         1      1.01
       0.1   9999999      1.02         2
        30         1      1.01
       0.1   9999999      1.02         2
        31         1      1.01
       0.1   9999999      1.02         2
        31         1      1.01
       0.1   9999999      1.02         2
        28         1      1.01
       0.1   9999999      1.02         2
        31         1      1.01
       0.1   9999999      1.02         2
        30         1      1.01
       0.1   9999999      1.02         2
        31         1      1.01
       0.1   9999999      1.02         2
        30         1      1.01
       0.1   9999999      1.02         2
        31         1      1.01
       0.1   9999999      1.02         2
        31         1      1.01
       0.1   9999999      1.02         2
        30         1      1.01
       0.1   9999999      1.02         2
        31         1      1.01
       0.1   9999999      1.02         2
        30         1      1.01
       0.1   9999999      1.02         2
        31         1      1.01
       0.1   9999999      1.02         2
        31         1      1.01
       0.1   9999999      1.02         2
        28         1      1.01
       0.1   9999999      1.02         2
        31         1      1.01
       0.1   9999999      1.02         2
        30         1      1.01
       0.1   9999999      1.02         2
        31         1      1.01
       0.1   9999999      1.02         2
        30         1      1.01
       0.1   9999999      1.02         2
        31         1      1.01
       0.1   9999999      1.02         2
        31         1      1.01
       0.1   9999999      1.02         2
        30         1      1.01
       0.1   9999999      1.02         2
        31         1      1.01
       0.1   9999999      1.02         2
        30         1      1.01
       0.1   9999999      1.02         2
        31         1      1.01
       0.1   9999999      1.02         2
        31         1      1.01
       0.1   9999999      1.02         2
        29         1      1.01
       0.1   9999999      1.02         2
        31         1      1.01
       0.1   9999999      1.02         2
        30         1      1.01
       0.1   9999999      1.02         2
        31         1      1.01
       0.1   9999999      1.02         2
        30         1      1.01
       0.1   9999999      1.02         2
        31         1      1.01
       0.1   9999999      1.02         2
        31         1      1.01
       0.1   9999999      1.02         2
        30         1      1.01
       0.1   9999999      1.02         2
        31         1      1.01
       0.1   9999999      1.02         2
        30         1      1.01
       0.1   9999999      1.02         2
        31         1      1.01
       0.1   9999999      1.02         2
        31         1      1.01
       0.1   9999999      1.02         2
        28         1      1.01
       0.1   9999999      1.02         2
        31         1      1.01
       0.1   9999999      1.02         2
        30         1      1.01
       0.1   9999999      1.02         2
        31         1      1.01
       0.1   9999999      1.02         2
        30         1      1.01
       0.1   9999999      1.02         2
        31         1      1.01
       0.1   9999999      1.02         2
        31         1      1.01
       0.1   9999999      1.02         2
        30         1      1.01
       0.1   9999999      1.02         2
        31         1      1.01
       0.1   9999999      1.02         2
        30         1      1.01
       0.1   9999999      1.02         2
        31         1      1.01
       0.1   9999999      1.02         2
        31         1      1.01
       0.1   9999999      1.02         2
        28         1      1.01
       0.1   9999999      1.02         2
        31         1      1.01
       0.1   9999999      1.02         2
        30         1      1.01
       0.1   9999999      1.02         2
        31         1      1.01
       0.1   9999999      1.02         2
        30         1      1.01
       0.1   9999999      1.02         2
        31         1      1.01
       0.1   9999999      1.02         2
        31         1      1.01
       0.1   9999999      1.02         2
        30         1      1.01
       0.1   9999999      1.02         2
        31         1      1.01
       0.1   9999999      1.02         2
        30         1      1.01
       0.1   9999999      1.02         2
        31         1      1.01
       0.1   9999999      1.02         2
        31         1      1.01
       0.1   9999999      1.02         2
        28         1      1.01
       0.1   9999999      1.02         2
        31         1      1.01
       0.1   9999999      1.02         2
        30         1      1.01
       0.1   9999999      1.02         2
        31         1      1.01
       0.1   9999999      1.02         2
        30         1      1.01
       0.1   9999999      1.02         2
        31         1      1.01
       0.1   9999999      1.02         2
        31         1      1.01
       0.1   9999999      1.02         2
        30         1      1.01
       0.1   9999999      1.02         2
        31         1      1.01
       0.1   9999999      1.02         2
        30         1      1.01
       0.1   9999999      1.02         2
        31         1      1.01
       0.1   9999999      1.02         2
        31         1      1.01
       0.1   9999999      1.02         2
        29         1      1.01
       0.1   9999999      1.02         2
        31         1      1.01
       0.1   9999999      1.02         2
        30         1      1.01
       0.1   9999999      1.02         2
        31         1      1.01
       0.1   9999999      1.02         2
        30         1      1.01
       0.1   9999999      1.02         2
        31         1      1.01
       0.1   9999999      1.02         2
        31         1      1.01
       0.1   9999999      1.02         2
        30         1      1.01
       0.1   9999999      1.02         2
        31         1      1.01
       0.1   9999999      1.02         2
        30         1      1.01
       0.1   9999999      1.02         2
        31         1      1.01
       0.1   9999999      1.02         2
        31         1      1.01
       0.1   9999999      1.02         2
        28         1      1.01
       0.1   9999999      1.02         2
        31         1      1.01
       0.1   9999999      1.02         2
        30         1      1.01
       0.1   9999999      1.02         2
        31         1      1.01
       0.1   9999999      1.02         2
        30         1      1.01
       0.1   9999999      1.02         2
        31         1      1.01
       0.1   9999999      1.02         2
        31         1      1.01
       0.1   9999999      1.02         2
        30         1      1.01
       0.1   9999999      1.02         2
        31         1      1.01
       0.1   9999999      1.02         2
        30         1      1.01
       0.1   9999999      1.02         2
        31         1      1.01
       0.1   9999999      1.02         2
        31         1      1.01
       0.1   9999999      1.02         2
        28         1      1.01
       0.1   9999999      1.02         2
        31         1      1.01
       0.1   9999999      1.02         2
        30         1      1.01
       0.1   9999999      1.02         2
        31         1      1.01
       0.1   9999999      1.02         2
        30         1      1.01
       0.1   9999999      1.02         2
        31         1      1.01
       0.1   9999999      1.02         2
        31         1      1.01
       0.1   9999999      1.02         2
        30         1      1.01
       0.1   9999999      1.02         2
        31         1      1.01
       0.1   9999999      1.02         2
        30         1      1.01
       0.1   9999999      1.02         2
        31         1      1.01
       0.1   9999999      1.02         2
        31         1      1.01
       0.1   9999999      1.02         2
        28         1      1.01
       0.1   9999999      1.02         2
        31         1      1.01
       0.1   9999999      1.02         2
        30         1      1.01
       0.1   9999999      1.02         2
        31         1      1.01
       0.1   9999999      1.02         2
        30         1      1.01
       0.1   9999999      1.02         2
        31         1      1.01
       0.1   9999999      1.02         2
        31         1      1.01
       0.1   9999999      1.02         2
        30         1      1.01
       0.1   9999999      1.02         2
        31         1      1.01
       0.1   9999999      1.02         2
        30         1      1.01
       0.1   9999999      1.02         2
        31         1      1.01
       0.1   9999999      1.02         2
        31         1      1.01
       0.1   9999999      1.02         2
        29         1      1.01
       0.1   9999999      1.02         2
        31         1      1.01
       0.1   9999999      1.02         2
        30         1      1.01
       0.1   9999999      1.02         2
        31         1      1.01
       0.1   9999999      1.02         2
        30         1      1.01
       0.1   9999999      1.02         2
        31         1      1.01
       0.1   9999999      1.02         2
        31         1      1.01
       0.1   9999999      1.02         2
        30         1      1.01
       0.1   9999999      1.02         2
        31         1      1.01
       0.1   9999999      1.02         2
        30         1      1.01
       0.1   9999999      1.02         2
        31         1      1.01
       0.1   9999999      1.02         2
        31         1      1.01
       0.1   9999999      1.02         2
        28         1      1.01
       0.1   9999999      1.02         2
        31         1      1.01
       0.1   9999999      1.02         2
        30         1      1.01
       0.1   9999999      1.02         2
        31         1      1.01
       0.1   9999999      1.02         2
        30         1      1.01
       0.1   9999999      1.02         2
        31         1      1.01
       0.1   9999999      1.02         2
        31         1      1.01
       0.1   9999999      1.02         2
        30         1      1.01
       0.1   9999999      1.02         2
        31         1      1.01
       0.1   9999999      1.02         2
        30         1      1.01
       0.1   9999999      1.02         2
        31         1      1.01
       0.1   9999999      1.02         2
       365         1      1.01
       0.1   9999999      1.02         2
       365         1      1.01
       0.1   9999999      1.02         2
       366         1      1.01
       0.1   9999999      1.02         2
       365         1      1.01
       0.1   9999999      1.02         2
       365         1      1.01
       0.1   9999999      1.02         2
       365         1      1.01
       0.1   9999999      1.02         2
       366         1      1.01
       0.1   9999999      1.02         2
       365         1      1.01
       0.1   9999999      1.02         2
       365         1      1.01
       0.1   9999999      1.02         2
       365         1      1.01
       0.1   9999999      1.02         2
       366         1      1.01
       0.1   9999999      1.02         2
       365         1      1.01
       0.1   9999999      1.02         2
       365         1      1.01
       0.1   9999999      1.02         2
       365         1      1.01
       0.1   9999999      1.02         2
       366         1      1.01
       0.1   9999999      1.02         2
       365         1      1.01
       0.1   9999999      1.02         2
       365         1      1.01
       0.1   9999999      1.02         2
       365         1      1.01
       0.1   9999999      1.02         2
       366         1      1.01
       0.1   9999999      1.02         2
       365         1      1.01
       0.1   9999999      1.02         2
       365         1      1.01
       0.1   9999999      1.02         2
       365         1      1.01
       0.1   9999999      1.02         2
       366         1      1.01
       0.1   9999999      1.02         2
       365         1      1.01
       0.1   9999999      1.02         2
       365         1      1.01
       0.1   9999999      1.02         2
       365         1      1.01
       0.1   9999999      1.02         2
       366         1      1.01
       0.1   9999999      1.02         2
       365         1      1.01
       0.1   9999999      1.02         2
       365         1      1.01
       0.1   9999999      1.02         2
       365         1      1.01
       0.1   9999999      1.02         2
       366         1      1.01
       0.1   9999999      1.02         2
       365         1      1.01
       0.1   9999999      1.02         2
       365         1      1.01
       0.1   9999999      1.02         2
       365         1      1.01
       0.1   9999999      1.02         2
       366         1      1.01
       0.1   9999999      1.02         2
       365         1      1.01
       0.1   9999999      1.02         2
       365         1      1.01
       0.1   9999999      1.02         2
       365         1      1.01
       0.1   9999999      1.02         2
       366         1      1.01
       0.1   9999999      1.02         2
       365         1      1.01
       0.1   9999999      1.02         2
       365         1      1.01
       0.1   9999999      1.02         2
       365         1      1.01
       0.1   9999999      1.02         2
       366         1      1.01
       0.1   9999999      1.02         2
       365         1      1.01
       0.1   9999999      1.02         2
       365         1      1.01
       0.1   9999999      1.02         2
       365         1      1.01
       0.1   9999999      1.02         2
       366         1      1.01
       0.1   9999999      1.02         2
       365         1      1.01
       0.1   9999999      1.02         2
       365         1      1.01
       0.1   9999999      1.02         2
       365         1      1.01
       0.1   9999999      1.02         2
       366         1      1.01
       0.1   9999999      1.02         2
       365         1      1.01
       0.1   9999999      1.02         2
       365         1      1.01
       0.1   9999999      1.02         2
       365         1      1.01
       0.1   9999999      1.02         2
       366         1      1.01
       0.1   9999999      1.02         2