# DIS package for MODFLOW-2005 generated by Flopy 3.3.6
         7       244       232       176         4         2
  0  0  0  0  0  0  0
OPEN/CLOSE                      ./delr.ref               1     (FREE) -1 delr                          
OPEN/CLOSE                      ./delc.ref               1     (FREE) -1 delc                          
OPEN/CLOSE                 ./model_top.ref               1     (FREE) -1 model_top                     
OPEN/CLOSE              ./botm_layer_1.ref               1     (FREE) -1 botm_layer_0                  
OPEN/CLOSE              ./botm_layer_2.ref               1     (FREE) -1 botm_layer_1                  
OPEN/CLOSE              ./botm_layer_3.ref               1     (FREE) -1 botm_layer_2                  
OPEN/CLOSE              ./botm_layer_4.ref               1     (FREE) -1 botm_layer_3                  
OPEN/CLOSE              ./botm_layer_5.ref               1     (FREE) -1 botm_layer_4                  
OPEN/CLOSE              ./botm_layer_6.ref               1     (FREE) -1 botm_layer_5                  
OPEN/CLOSE              ./botm_layer_7.ref               1     (FREE) -1 botm_layer_6                  
31	1	1.01	TR
28	1	1.01	TR
31	1	1.01	TR
30	1	1.01	TR
31	1	1.01	TR
30	1	1.01	TR
31	1	1.01	TR
31	1	1.01	TR
30	1	1.01	TR
31	1	1.01	TR
30	1	1.01	TR
31	1	1.01	TR
31	1	1.01	TR
28	1	1.01	TR
31	1	1.01	TR
30	1	1.01	TR
31	1	1.01	TR
30	1	1.01	TR
31	1	1.01	TR
31	1	1.01	TR
30	1	1.01	TR
31	1	1.01	TR
30	1	1.01	TR
31	1	1.01	TR
31	1	1.01	TR
29	1	1.01	TR
31	1	1.01	TR
30	1	1.01	TR
31	1	1.01	TR
30	1	1.01	TR
31	1	1.01	TR
31	1	1.01	TR
30	1	1.01	TR
31	1	1.01	TR
30	1	1.01	TR
31	1	1.01	TR
31	1	1.01	TR
28	1	1.01	TR
31	1	1.01	TR
30	1	1.01	TR
31	1	1.01	TR
30	1	1.01	TR
31	1	1.01	TR
31	1	1.01	TR
30	1	1.01	TR
31	1	1.01	TR
30	1	1.01	TR
31	1	1.01	TR
31	1	1.01	TR
28	1	1.01	TR
31	1	1.01	TR
30	1	1.01	TR
31	1	1.01	TR
30	1	1.01	TR
31	1	1.01	TR
31	1	1.01	TR
30	1	1.01	TR
31	1	1.01	TR
30	1	1.01	TR
31	1	1.01	TR
31	1	1.01	TR
28	1	1.01	TR
31	1	1.01	TR
30	1	1.01	TR
31	1	1.01	TR
30	1	1.01	TR
31	1	1.01	TR
31	1	1.01	TR
30	1	1.01	TR
31	1	1.01	TR
30	1	1.01	TR
31	1	1.01	TR
91	1	1.01	TR
91	1	1.01	TR
92	1	1.01	TR
92	1	1.01	TR
90	1	1.01	TR
91	1	1.01	TR
92	1	1.01	TR
92	1	1.01	TR
90	1	1.01	TR
91	1	1.01	TR
92	1	1.01	TR
92	1	1.01	TR
90	1	1.01	TR
91	1	1.01	TR
92	1	1.01	TR
92	1	1.01	TR
91	1	1.01	TR
91	1	1.01	TR
92	1	1.01	TR
92	1	1.01	TR
90	1	1.01	TR
91	1	1.01	TR
92	1	1.01	TR
92	1	1.01	TR
90	1	1.01	TR
91	1	1.01	TR
92	1	1.01	TR
92	1	1.01	TR
90	1	1.01	TR
91	1	1.01	TR
92	1	1.01	TR
92	1	1.01	TR
91	1	1.01	TR
91	1	1.01	TR
92	1	1.01	TR
92	1	1.01	TR
90	1	1.01	TR
91	1	1.01	TR
92	1	1.01	TR
92	1	1.01	TR
365	1	1.01	TR
365	1	1.01	TR
366	1	1.01	TR
365	1	1.01	TR
365	1	1.01	TR
365	1	1.01	TR
366	1	1.01	TR
365	1	1.01	TR
365	1	1.01	TR
365	1	1.01	TR
366	1	1.01	TR
365	1	1.01	TR
365	1	1.01	TR
365	1	1.01	TR
366	1	1.01	TR
365	1	1.01	TR
365	1	1.01	TR
365	1	1.01	TR
366	1	1.01	TR
365	1	1.01	TR
365	1	1.01	TR
365	1	1.01	TR
366	1	1.01	TR
365	1	1.01	TR
365	1	1.01	TR
365	1	1.01	TR
366	1	1.01	TR
365	1	1.01	TR
365	1	1.01	TR
365	1	1.01	TR
366	1	1.01	TR
365	1	1.01	TR
365	1	1.01	TR
365	1	1.01	TR
366	1	1.01	TR
365	1	1.01	TR
365	1	1.01	TR
365	1	1.01	TR
366	1	1.01	TR
365	1	1.01	TR
365	1	1.01	TR
365	1	1.01	TR
366	1	1.01	TR
365	1	1.01	TR
365	1	1.01	TR
365	1	1.01	TR
366	1	1.01	TR
365	1	1.01	TR
365	1	1.01	TR
365	1	1.01	TR
366	1	1.01	TR
365	1	1.01	TR
365	1	1.01	TR
365	1	1.01	TR
366	1	1.01	TR
365	1	1.01	TR
365	1	1.01	TR
365	1	1.01	TR
366	1	1.01	TR
365	1	1.01	TR
365	1	1.01	TR
365	1	1.01	TR
12783	1	1.01	TR
1096	1	1.01	TR
