# DIS package for MODFLOW-2005 generated by Flopy 3.3.6
         8       133       188        184         4         2
  0  0  0  0  0  0  0  0
OPEN/CLOSE              delr.ref               1     (FREE) -1 delr
OPEN/CLOSE              delc.ref               1     (FREE) -1 delc
OPEN/CLOSE              model_top.ref               1     (FREE) -1 model_top
OPEN/CLOSE              botm_layer_1.ref               1     (FREE) -1 botm_layer_0
OPEN/CLOSE              botm_layer_2.ref               1     (FREE) -1 botm_layer_1
OPEN/CLOSE              botm_layer_3.ref               1     (FREE) -1 botm_layer_2
OPEN/CLOSE              botm_layer_4.ref               1     (FREE) -1 botm_layer_3
OPEN/CLOSE              botm_layer_5.ref               1     (FREE) -1 botm_layer_4
OPEN/CLOSE              botm_layer_6.ref               1     (FREE) -1 botm_layer_5
OPEN/CLOSE              botm_layer_7.ref               1     (FREE) -1 botm_layer_6
OPEN/CLOSE              botm_layer_8.ref               1     (FREE) -1 botm_layer_7
           31.0              1           1.01            TR     SP: 1        1/1/2016 00:00 to  2/1/2016 00:00
           29.0              1           1.01            TR     SP: 2        2/1/2016 00:00 to  3/1/2016 00:00
           31.0              1           1.01            TR     SP: 3        3/1/2016 00:00 to  4/1/2016 00:00
           30.0              1           1.01            TR     SP: 4        4/1/2016 00:00 to  5/1/2016 00:00
           31.0              1           1.01            TR     SP: 5        5/1/2016 00:00 to  6/1/2016 00:00
           30.0              1           1.01            TR     SP: 6        6/1/2016 00:00 to  7/1/2016 00:00
           31.0              1           1.01            TR     SP: 7        7/1/2016 00:00 to  8/1/2016 00:00
           31.0              1           1.01            TR     SP: 8        8/1/2016 00:00 to  9/1/2016 00:00
           30.0              1           1.01            TR     SP: 9        9/1/2016 00:00 to 10/1/2016 00:00
           31.0              1           1.01            TR     SP: 10      10/1/2016 00:00 to 11/1/2016 00:00
           30.0              1           1.01            TR     SP: 11      11/1/2016 00:00 to 12/1/2016 00:00
           31.0              1           1.01            TR     SP: 12      12/1/2016 00:00 to  1/1/2017 00:00
           31.0              1           1.01            TR     SP: 13       1/1/2017 00:00 to  2/1/2017 00:00
           28.0              1           1.01            TR     SP: 14       2/1/2017 00:00 to  3/1/2017 00:00
           31.0              1           1.01            TR     SP: 15       3/1/2017 00:00 to  4/1/2017 00:00
           30.0              1           1.01            TR     SP: 16       4/1/2017 00:00 to  5/1/2017 00:00
           31.0              1           1.01            TR     SP: 17       5/1/2017 00:00 to  6/1/2017 00:00
           30.0              1           1.01            TR     SP: 18       6/1/2017 00:00 to  7/1/2017 00:00
           31.0              1           1.01            TR     SP: 19       7/1/2017 00:00 to  8/1/2017 00:00
           31.0              1           1.01            TR     SP: 20       8/1/2017 00:00 to  9/1/2017 00:00
           30.0              1           1.01            TR     SP: 21       9/1/2017 00:00 to 10/1/2017 00:00
           31.0              1           1.01            TR     SP: 22      10/1/2017 00:00 to 11/1/2017 00:00
           30.0              1           1.01            TR     SP: 23      11/1/2017 00:00 to 12/1/2017 00:00
           31.0              1           1.01            TR     SP: 24      12/1/2017 00:00 to  1/1/2018 00:00
           31.0              1           1.01            TR     SP: 25       1/1/2018 00:00 to  2/1/2018 00:00
           28.0              1           1.01            TR     SP: 26       2/1/2018 00:00 to  3/1/2018 00:00
           31.0              1           1.01            TR     SP: 27       3/1/2018 00:00 to  4/1/2018 00:00
           30.0              1           1.01            TR     SP: 28       4/1/2018 00:00 to  5/1/2018 00:00
           31.0              1           1.01            TR     SP: 29       5/1/2018 00:00 to  6/1/2018 00:00
           30.0              1           1.01            TR     SP: 30       6/1/2018 00:00 to  7/1/2018 00:00
           31.0              1           1.01            TR     SP: 31       7/1/2018 00:00 to  8/1/2018 00:00
           31.0              1           1.01            TR     SP: 32       8/1/2018 00:00 to  9/1/2018 00:00
           30.0              1           1.01            TR     SP: 33       9/1/2018 00:00 to 10/1/2018 00:00
           31.0              1           1.01            TR     SP: 34      10/1/2018 00:00 to 11/1/2018 00:00
           30.0              1           1.01            TR     SP: 35      11/1/2018 00:00 to 12/1/2018 00:00
           31.0              1           1.01            TR     SP: 36      12/1/2018 00:00 to  1/1/2019 00:00
           31.0              1           1.01            TR     SP: 37       1/1/2019 00:00 to  2/1/2019 00:00
           28.0              1           1.01            TR     SP: 38       2/1/2019 00:00 to  3/1/2019 00:00
           31.0              1           1.01            TR     SP: 39       3/1/2019 00:00 to  4/1/2019 00:00
           30.0              1           1.01            TR     SP: 40       4/1/2019 00:00 to  5/1/2019 00:00
           31.0              1           1.01            TR     SP: 41       5/1/2019 00:00 to  6/1/2019 00:00
           30.0              1           1.01            TR     SP: 42       6/1/2019 00:00 to  7/1/2019 00:00
           31.0              1           1.01            TR     SP: 43       7/1/2019 00:00 to  8/1/2019 00:00
           31.0              1           1.01            TR     SP: 44       8/1/2019 00:00 to  9/1/2019 00:00
           30.0              1           1.01            TR     SP: 45       9/1/2019 00:00 to 10/1/2019 00:00
           31.0              1           1.01            TR     SP: 46      10/1/2019 00:00 to 11/1/2019 00:00
           30.0              1           1.01            TR     SP: 47      11/1/2019 00:00 to 12/1/2019 00:00
           31.0              1           1.01            TR     SP: 48      12/1/2019 00:00 to  1/1/2020 00:00
           31.0              1           1.01            TR     SP: 49       1/1/2020 00:00 to  2/1/2020 00:00
           29.0              1           1.01            TR     SP: 50       2/1/2020 00:00 to  3/1/2020 00:00
           31.0              1           1.01            TR     SP: 51       3/1/2020 00:00 to  4/1/2020 00:00
           30.0              1           1.01            TR     SP: 52       4/1/2020 00:00 to  5/1/2020 00:00
           31.0              1           1.01            TR     SP: 53       5/1/2020 00:00 to  6/1/2020 00:00
           30.0              1           1.01            TR     SP: 54       6/1/2020 00:00 to  7/1/2020 00:00
           31.0              1           1.01            TR     SP: 55       7/1/2020 00:00 to  8/1/2020 00:00
           31.0              1           1.01            TR     SP: 56       8/1/2020 00:00 to  9/1/2020 00:00
           30.0              1           1.01            TR     SP: 57       9/1/2020 00:00 to 10/1/2020 00:00
           31.0              1           1.01            TR     SP: 58      10/1/2020 00:00 to 11/1/2020 00:00
           30.0              1           1.01            TR     SP: 59      11/1/2020 00:00 to 12/1/2020 00:00
           31.0              1           1.01            TR     SP: 60      12/1/2020 00:00 to  1/1/2021 00:00
           31.0              1           1.01            TR     SP: 61       1/1/2021 00:00 to  2/1/2021 00:00
           28.0              1           1.01            TR     SP: 62       2/1/2021 00:00 to  3/1/2021 00:00
           31.0              1           1.01            TR     SP: 63       3/1/2021 00:00 to  4/1/2021 00:00
           30.0              1           1.01            TR     SP: 64       4/1/2021 00:00 to  5/1/2021 00:00
           31.0              1           1.01            TR     SP: 65       5/1/2021 00:00 to  6/1/2021 00:00
           30.0              1           1.01            TR     SP: 66       6/1/2021 00:00 to  7/1/2021 00:00
           31.0              1           1.01            TR     SP: 67       7/1/2021 00:00 to  8/1/2021 00:00
           31.0              1           1.01            TR     SP: 68       8/1/2021 00:00 to  9/1/2021 00:00
           30.0              1           1.01            TR     SP: 69       9/1/2021 00:00 to 10/1/2021 00:00
           31.0              1           1.01            TR     SP: 70      10/1/2021 00:00 to 11/1/2021 00:00
           30.0              1           1.01            TR     SP: 71      11/1/2021 00:00 to 12/1/2021 00:00
           31.0              1           1.01            TR     SP: 72      12/1/2021 00:00 to  1/1/2022 00:00
           31.0              1           1.01            TR     SP: 73       1/1/2022 00:00 to  2/1/2022 00:00
           28.0              1           1.01            TR     SP: 74       2/1/2022 00:00 to  3/1/2022 00:00
           31.0              1           1.01            TR     SP: 75       3/1/2022 00:00 to  4/1/2022 00:00
           30.0              1           1.01            TR     SP: 76       4/1/2022 00:00 to  5/1/2022 00:00
           31.0              1           1.01            TR     SP: 77       5/1/2022 00:00 to  6/1/2022 00:00
           30.0              1           1.01            TR     SP: 78       6/1/2022 00:00 to  7/1/2022 00:00
           31.0              1           1.01            TR     SP: 79       7/1/2022 00:00 to  8/1/2022 00:00
           31.0              1           1.01            TR     SP: 80       8/1/2022 00:00 to  9/1/2022 00:00
           30.0              1           1.01            TR     SP: 81       9/1/2022 00:00 to 10/1/2022 00:00
           31.0              1           1.01            TR     SP: 82      10/1/2022 00:00 to 11/1/2022 00:00
           30.0              1           1.01            TR     SP: 83      11/1/2022 00:00 to 12/1/2022 00:00
           31.0              1           1.01            TR     SP: 84      12/1/2022 00:00 to  1/1/2023 00:00
           31.0              1           1.01            TR     SP: 85       1/1/2023 00:00 to  2/1/2023 00:00
           28.0              1           1.01            TR     SP: 86       2/1/2023 00:00 to  3/1/2023 00:00
           31.0              1           1.01            TR     SP: 87       3/1/2023 00:00 to  4/1/2023 00:00
           30.0              1           1.01            TR     SP: 88       4/1/2023 00:00 to  5/1/2023 00:00
           31.0              1           1.01            TR     SP: 89       5/1/2023 00:00 to  6/1/2023 00:00
           30.0              1           1.01            TR     SP: 90       6/1/2023 00:00 to  7/1/2023 00:00
           31.0              1           1.01            TR     SP: 91       7/1/2023 00:00 to  8/1/2023 00:00
           31.0              1           1.01            TR     SP: 92       8/1/2023 00:00 to  9/1/2023 00:00
           30.0              1           1.01            TR     SP: 93       9/1/2023 00:00 to 10/1/2023 00:00
           31.0              1           1.01            TR     SP: 94      10/1/2023 00:00 to 11/1/2023 00:00
           30.0              1           1.01            TR     SP: 95      11/1/2023 00:00 to 12/1/2023 00:00
           31.0              1           1.01            TR     SP: 96      12/1/2023 00:00 to  1/1/2024 00:00
           31.0              1           1.01            TR     SP: 97       1/1/2024 00:00 to  2/1/2024 00:00
           29.0              1           1.01            TR     SP: 98       2/1/2024 00:00 to  3/1/2024 00:00
           31.0              1           1.01            TR     SP: 99       3/1/2024 00:00 to  4/1/2024 00:00
           30.0              1           1.01            TR     SP: 100      4/1/2024 00:00 to  5/1/2024 00:00
           31.0              1           1.01            TR     SP: 101      5/1/2024 00:00 to  6/1/2024 00:00
           30.0              1           1.01            TR     SP: 102      6/1/2024 00:00 to  7/1/2024 00:00
           31.0              1           1.01            TR     SP: 103      7/1/2024 00:00 to  8/1/2024 00:00
           31.0              1           1.01            TR     SP: 104      8/1/2024 00:00 to  9/1/2024 00:00
           30.0              1           1.01            TR     SP: 105      9/1/2024 00:00 to 10/1/2024 00:00
           31.0              1           1.01            TR     SP: 106     10/1/2024 00:00 to 11/1/2024 00:00
           30.0              1           1.01            TR     SP: 107     11/1/2024 00:00 to 12/1/2024 00:00
           31.0              1           1.01            TR     SP: 108     12/1/2024 00:00 to  1/1/2025 00:00
           31.0              1           1.01            TR     SP: 109      1/1/2025 00:00 to  2/1/2025 00:00
           28.0              1           1.01            TR     SP: 110      2/1/2025 00:00 to  3/1/2025 00:00
           31.0              1           1.01            TR     SP: 111      3/1/2025 00:00 to  4/1/2025 00:00
           30.0              1           1.01            TR     SP: 112      4/1/2025 00:00 to  5/1/2025 00:00
           31.0              1           1.01            TR     SP: 113      5/1/2025 00:00 to  6/1/2025 00:00
           30.0              1           1.01            TR     SP: 114      6/1/2025 00:00 to  7/1/2025 00:00
           31.0              1           1.01            TR     SP: 115      7/1/2025 00:00 to  8/1/2025 00:00
           31.0              1           1.01            TR     SP: 116      8/1/2025 00:00 to  9/1/2025 00:00
           30.0              1           1.01            TR     SP: 117      9/1/2025 00:00 to 10/1/2025 00:00
           31.0              1           1.01            TR     SP: 118     10/1/2025 00:00 to 11/1/2025 00:00
           30.0              1           1.01            TR     SP: 119     11/1/2025 00:00 to 12/1/2025 00:00
           31.0              1           1.01            TR     SP: 120     12/1/2025 00:00 to  1/1/2026 00:00
           31.0              1           1.01            TR     SP: 109      1/1/2026 00:00 to  2/1/2025 00:00
           28.0              1           1.01            TR     SP: 110      2/1/2026 00:00 to  3/1/2025 00:00
           31.0              1           1.01            TR     SP: 111      3/1/2026 00:00 to  4/1/2025 00:00
           30.0              1           1.01            TR     SP: 112      4/1/2026 00:00 to  5/1/2025 00:00
           31.0              1           1.01            TR     SP: 113      5/1/2026 00:00 to  6/1/2025 00:00
           30.0              1           1.01            TR     SP: 114      6/1/2026 00:00 to  7/1/2025 00:00
           31.0              1           1.01            TR     SP: 115      7/1/2026 00:00 to  8/1/2025 00:00
           31.0              1           1.01            TR     SP: 116      8/1/2026 00:00 to  9/1/2025 00:00
           30.0              1           1.01            TR     SP: 117      9/1/2026 00:00 to 10/1/2025 00:00
           31.0              1           1.01            TR     SP: 118     10/1/2026 00:00 to 11/1/2025 00:00
           30.0              1           1.01            TR     SP: 119     11/1/2026 00:00 to 12/1/2025 00:00
           31.0              1           1.01            TR     SP: 120     12/1/2026 00:00 to  1/1/2026 00:00
           31.0              1           1.01            TR     SP: 109      1/1/2027 00:00 to  2/1/2025 00:00
           28.0              1           1.01            TR     SP: 110      2/1/2027 00:00 to  3/1/2025 00:00
           31.0              1           1.01            TR     SP: 111      3/1/2027 00:00 to  4/1/2025 00:00
           30.0              1           1.01            TR     SP: 112      4/1/2027 00:00 to  5/1/2025 00:00
           31.0              1           1.01            TR     SP: 113      5/1/2027 00:00 to  6/1/2025 00:00
           30.0              1           1.01            TR     SP: 114      6/1/2027 00:00 to  7/1/2025 00:00
           31.0              1           1.01            TR     SP: 115      7/1/2027 00:00 to  8/1/2025 00:00
           31.0              1           1.01            TR     SP: 116      8/1/2027 00:00 to  9/1/2025 00:00
           30.0              1           1.01            TR     SP: 117      9/1/2027 00:00 to 10/1/2025 00:00
           31.0              1           1.01            TR     SP: 118     10/1/2027 00:00 to 11/1/2025 00:00
           30.0              1           1.01            TR     SP: 119     11/1/2027 00:00 to 12/1/2025 00:00
           31.0              1           1.01            TR     SP: 120     12/1/2027 00:00 to  1/1/2026 00:00
           91.0              2           1.01            TR     SP: 129      1/1/2028 00:00 to  4/1/2028 00:00
           91.0              2           1.01            TR     SP: 130      4/1/2028 00:00 to  7/1/2028 00:00
           92.0              2           1.01            TR     SP: 131      7/1/2028 00:00 to 10/1/2028 00:00
           92.0              2           1.01            TR     SP: 132     10/1/2028 00:00 to  1/1/2029 00:00
           90.0              2           1.01            TR     SP: 133      1/1/2029 00:00 to  4/1/2029 00:00
           91.0              2           1.01            TR     SP: 134      4/1/2029 00:00 to  7/1/2029 00:00
           92.0              2           1.01            TR     SP: 135      7/1/2029 00:00 to 10/1/2029 00:00
           92.0              2           1.01            TR     SP: 136     10/1/2029 00:00 to  1/1/2030 00:00
           90.0              2           1.01            TR     SP: 137      1/1/2030 00:00 to  4/1/2030 00:00
           91.0              2           1.01            TR     SP: 138      4/1/2030 00:00 to  7/1/2030 00:00
           92.0              2           1.01            TR     SP: 139      7/1/2030 00:00 to 10/1/2030 00:00
           92.0              2           1.01            TR     SP: 140     10/1/2030 00:00 to  1/1/2031 00:00
           90.0              2           1.01            TR     SP: 141      1/1/2031 00:00 to  4/1/2031 00:00
           91.0              2           1.01            TR     SP: 142      4/1/2031 00:00 to  7/1/2031 00:00
           92.0              2           1.01            TR     SP: 143      7/1/2031 00:00 to 10/1/2031 00:00
           92.0              2           1.01            TR     SP: 144     10/1/2031 00:00 to  1/1/2032 00:00
           91.0              2           1.01            TR     SP: 145      1/1/2032 00:00 to  4/1/2032 00:00
           91.0              2           1.01            TR     SP: 146      4/1/2032 00:00 to  7/1/2032 00:00
           92.0              2           1.01            TR     SP: 147      7/1/2032 00:00 to 10/1/2032 00:00
           92.0              2           1.01            TR     SP: 148     10/1/2032 00:00 to  1/1/2033 00:00
           90.0              2           1.01            TR     SP: 149      1/1/2033 00:00 to  4/1/2033 00:00
           91.0              2           1.01            TR     SP: 150      4/1/2033 00:00 to  7/1/2033 00:00
           92.0              2           1.01            TR     SP: 151      7/1/2033 00:00 to 10/1/2033 00:00
           92.0              2           1.01            TR     SP: 152     10/1/2033 00:00 to  1/1/2034 00:00
           90.0              2           1.01            TR     SP: 153      1/1/2034 00:00 to  4/1/2034 00:00
           91.0              2           1.01            TR     SP: 154      4/1/2034 00:00 to  7/1/2034 00:00
           92.0              2           1.01            TR     SP: 155      7/1/2034 00:00 to 10/1/2034 00:00
           92.0              2           1.01            TR     SP: 156     10/1/2034 00:00 to  1/1/2035 00:00
           90.0              2           1.01            TR     SP: 157      1/1/2035 00:00 to  4/1/2035 00:00
           91.0              2           1.01            TR     SP: 158      4/1/2035 00:00 to  7/1/2035 00:00
           92.0              2           1.01            TR     SP: 159      7/1/2035 00:00 to 10/1/2035 00:00
           92.0              2           1.01            TR     SP: 160     10/1/2035 00:00 to  1/1/2036 00:00
           91.0              2           1.01            TR     SP: 161      1/1/2036 00:00 to  4/1/2036 00:00
           91.0              2           1.01            TR     SP: 162      4/1/2036 00:00 to  7/1/2036 00:00
           92.0              2           1.01            TR     SP: 163      7/1/2036 00:00 to 10/1/2036 00:00
           92.0              2           1.01            TR     SP: 164     10/1/2036 00:00 to  1/1/2037 00:00
           90.0              2           1.01            TR     SP: 165      1/1/2037 00:00 to  4/1/2037 00:00
           91.0              2           1.01            TR     SP: 166      4/1/2037 00:00 to  7/1/2037 00:00
           92.0              2           1.01            TR     SP: 167      7/1/2037 00:00 to 10/1/2037 00:00
           92.0              2           1.01            TR     SP: 168     10/1/2037 00:00 to  1/1/2038 00:00
