# HFB6 package for MODFLOW-2005 generated by Flopy 3.3.6
         0         0        62
         6        15       114        15       115      0.00692
         6        16       114        16       115      0.00692
         6        17       114        17       115      0.00692
         6        18       114        18       115      0.00692
         6        19       114        19       115      0.00692
         6        20       114        20       115      0.00692
         6        21       114        21       115      0.00692
         6        22       114        22       115      0.00692
         6        23       114        23       115      0.00692
         6        24       114        24       115      0.00692
         6        25       114        25       115      0.00692
         6        26       114        26       115      0.00692
         6        27       114        27       115      0.00692
         6        28       114        28       115      0.00692
         6        29       114        29       115      0.00692
         6        30       114        30       115      0.00692
         6        31       114        31       115      0.00692
         6        32       114        32       115      0.00692
         6        33       114        33       115      0.00692
         6        34       114        34       115      0.00692
         6        35       114        35       115      0.00692
         6        36       114        36       115      0.00692
         6        37       114        37       115      0.00692
         6        38       114        38       115      0.00692
         6        39       114        39       115      0.00692
         6        40       114        40       115      0.00692
         6        41       114        41       115      0.00692
         6        42       114        42       115      0.00692
         6        43       114        43       115      0.00692
         6        44       114        44       115      0.00692
         6        45       114        45       115      0.00692
         7        15       114        15       115      0.00692
         7        16       114        16       115      0.00692
         7        17       114        17       115      0.00692
         7        18       114        18       115      0.00692
         7        19       114        19       115      0.00692
         7        20       114        20       115      0.00692
         7        21       114        21       115      0.00692
         7        22       114        22       115      0.00692
         7        23       114        23       115      0.00692
         7        24       114        24       115      0.00692
         7        25       114        25       115      0.00692
         7        26       114        26       115      0.00692
         7        27       114        27       115      0.00692
         7        28       114        28       115      0.00692
         7        29       114        29       115      0.00692
         7        30       114        30       115      0.00692
         7        31       114        31       115      0.00692
         7        32       114        32       115      0.00692
         7        33       114        33       115      0.00692
         7        34       114        34       115      0.00692
         7        35       114        35       115      0.00692
         7        36       114        36       115      0.00692
         7        37       114        37       115      0.00692
         7        38       114        38       115      0.00692
         7        39       114        39       115      0.00692
         7        40       114        40       115      0.00692
         7        41       114        41       115      0.00692
         7        42       114        42       115      0.00692
         7        43       114        43       115      0.00692
         7        44       114        44       115      0.00692
         7        45       114        45       115      0.00692





         0