# LMT6 package for MODFLOW-2005 generated by Flopy 3.3.6
OUTPUT_FILE_NAME     P2Rv9.1.ftl         
OUTPUT_FILE_UNIT             47
OUTPUT_FILE_HEADER   Extended            
OUTPUT_FILE_FORMAT   Unformatted         
