#PLATEAU TO RIVER
MT3D Model P2RGWM w/ Baseline Flow Model 
NOWETDRYPRINT DRYCELL
         8       236       304        95         1         1         1     !NLAY,NROW,NCOL,NPER,NCOMP,MCOMP
D  M  KG                                                                   !TUNIT,LUNIT,MUNIT 
 T T T T T                                                                 !ADV,DSP,SSM,RCT,GCG,...  
 1 1 1 1 1 1 1 1                                                             !LAYCON
         0   50.0000(10E12.4)                               -1
         0   50.0000(10E12.4)                               -1
        50       1.0(7E14.6)                                -1              !TOP
        51       1.0(7E14.6)                                -1              !THICK
        52       1.0(7E14.6)                                -1              !THICK
        53       1.0(7E14.6)                                -1              !THICK
        54       1.0(7E14.6)                                -1              !THICK
        55       1.0(7E14.6)                                -1              !THICK
        56       1.0(7E14.6)                                -1              !THICK
        57       1.0(7E14.6)                                -1              !THICK
        58       1.0(7E14.6)                                -1              !THICK
        41 1.000e+00(7E14.6)                                -1              !PRSITY
        42 1.000e+00(7E14.6)                                -1
        43 1.000e+00(7E14.6)                                -1
        44 1.000e+00(7E14.6)                                -1
        45 1.000e+00(7E14.6)                                -1
        46 1.000e+00(7E14.6)                                -1
        47 1.000e+00(7E14.6)                                -1
        48 1.000e+00(7E14.6)                                -1
        61         1(20I4)                                  -1              !ICBUND
        62         1(20I4)                                  -1              !ICBUND
        63         1(20I4)                                  -1              !ICBUND
        64         1(20I4)                                  -1              !ICBUND
        65         1(20I4)                                  -1              !ICBUND
        66         1(20I4)                                  -1              !ICBUND
        67         1(20I4)                                  -1              !ICBUND
        68         1(20I4)                                  -1              !ICBUND
        71     1000. (7E14.6)                               -1              !SCONC
        72     1000. (7E14.6)                               -1
        73     1000. (7E14.6)                               -1
        74     1000. (7E14.6)                               -1
        75     1000. (7E14.6)                               -1
        76     1000. (7E14.6)                               -1
        77     1000. (7E14.6)                               -1
        78     1000. (7E14.6)                               -1
-1.000e+00  1.00e-07                                   !CINACT, THKMIN
         0         0         0         0         T     !IFMTCN,IFMTNP,IFMTRF,IFMTDP,SAVUCN
        99                                          !NPRS
      0.01    365.25    730.50   1095.75   1461.00   1826.25   2191.50   2556.75
   2922.00   3287.25   3652.50   4017.75   4383.00   4748.25   5113.50   5478.75
   5844.00   6209.25   6574.50   6939.75   7305.00   7670.25   8035.50   8400.75
   8766.00   9131.25   9496.50   9861.75  10227.00  10592.25  10957.50  11322.75
  11688.00  12053.25  12418.50  12783.75  13149.00  13514.25  13879.50  14244.75
  14610.00  14975.25  15340.50  15705.75  16071.00  16436.25  16801.50  17166.75
  17532.00  17897.25  18262.50  18627.75  18993.00  22645.50  26298.00  29950.50
  33603.00  37255.50  40908.00  44560.50  48213.00  51865.50  55518.00  64649.25
  73780.50  82911.75  92043.00 101174.25 110305.50 119436.75 128568.00 137699.25
 146830.50 155961.75 165093.00 174224.25 183355.50 192486.75 201618.00 210749.25
 219880.50 229011.75 238143.00 247274.25 256405.50 265536.75 274668.00 283799.25
 292930.50 302061.75 311193.00 320324.25 329455.50 338586.75 347718.00 356849.25
 365980.50 375111.75 384243.00 
         0         0                                !NOBS,NPROBS
         T       100                                !CHKMAS,NPRMAS
    365.25         5      1.01
  1.00E-01   9999999      1.02      1.00  
    365.25         5      1.01
  1.00E-01   9999999      1.02      1.00  
    365.25         5      1.01
  1.00E-01   9999999      1.02      1.00  
    365.25         5      1.01
  1.00E-01   9999999      1.02      1.00  
    365.25         5      1.01
  1.00E-01   9999999      1.02      1.00  
    365.25         5      1.01
  1.00E-01   9999999      1.02      1.00  
    365.25         5      1.01
  1.00E-01   9999999      1.02      1.00  
    365.25         5      1.01
  1.00E-01   9999999      1.02      1.00  
    365.25         5      1.01
  1.00E-01   9999999      1.02      1.00  
    365.25         5      1.01
  1.00E-01   9999999      1.02      1.00  
    365.25         5      1.01
  1.00E-01   9999999      1.02      1.00  
    365.25         5      1.01
  1.00E-01   9999999      1.02      1.00  
    365.25         5      1.01
  1.00E-01   9999999      1.02      1.00  
    365.25         5      1.01
  1.00E-01   9999999      1.02      1.00  
    365.25         5      1.01
  1.00E-01   9999999      1.02      1.00  
    365.25         5      1.01
  1.00E-01   9999999      1.02      1.00  
    365.25         5      1.01
  1.00E-01   9999999      1.02      1.00  
    365.25         5      1.01
  1.00E-01   9999999      1.02      1.00  
    365.25         5      1.01
  1.00E-01   9999999      1.02      1.00  
    365.25         5      1.01
  1.00E-01   9999999      1.02      1.00  
    365.25         5      1.01
  1.00E-01   9999999      1.02      1.00  
    365.25         5      1.01
  1.00E-01   9999999      1.02      1.00  
    365.25         5      1.01
  1.00E-01   9999999      1.02      1.00  
    365.25         5      1.01
  1.00E-01   9999999      1.02      1.00  
    365.25         5      1.01
  1.00E-01   9999999      1.02      1.00  
    365.25         5      1.01
  1.00E-01   9999999      1.02      1.00  
    365.25         5      1.01
  1.00E-01   9999999      1.02      1.00  
    365.25         5      1.01
  1.00E-01   9999999      1.02      1.00  
    365.25         5      1.01
  1.00E-01   9999999      1.02      1.00  
    365.25         5      1.01
  1.00E-01   9999999      1.02      1.00  
    365.25         5      1.01
  1.00E-01   9999999      1.02      1.00  
    365.25         5      1.01
  1.00E-01   9999999      1.02      1.00  
    365.25         5      1.01
  1.00E-01   9999999      1.02      1.00  
    365.25         5      1.01
  1.00E-01   9999999      1.02      1.00  
    365.25         5      1.01
  1.00E-01   9999999      1.02      1.00  
    365.25         5      1.01
  1.00E-01   9999999      1.02      1.00  
    365.25         5      1.01
  1.00E-01   9999999      1.02      1.00  
    365.25         5      1.01
  1.00E-01   9999999      1.02      1.00  
    365.25         5      1.01
  1.00E-01   9999999      1.02      1.00  
    365.25         5      1.01
  1.00E-01   9999999      1.02      1.00  
    365.25         5      1.01
  1.00E-01   9999999      1.02      1.00  
    365.25         5      1.01
  1.00E-01   9999999      1.02      1.00  
    365.25         5      1.01
  1.00E-01   9999999      1.02      1.00  
    365.25         5      1.01
  1.00E-01   9999999      1.02      1.00  
    365.25         5      1.01
  1.00E-01   9999999      1.02      1.00  
    365.25         5      1.01
  1.00E-01   9999999      1.02      1.00  
    365.25         5      1.01
  1.00E-01   9999999      1.02      1.00  
    365.25         5      1.01
  1.00E-01   9999999      1.02      1.00  
    365.25         5      1.01
  1.00E-01   9999999      1.02      1.00  
    365.25         5      1.01
  1.00E-01   9999999      1.02      1.00  
    365.25         5      1.01
  1.00E-01   9999999      1.02      1.00  
    365.25         5      1.01
  1.00E-01   9999999      1.02      1.00  
    365.25         5      1.01
  1.00E-01   9999999      1.02      1.00  
    365.25         5      1.01
  1.00E-01   9999999      1.02      1.00  
    365.25         5      1.01
  1.00E-01   9999999      1.02      1.00  
    365.25         5      1.01
  1.00E-01   9999999      1.02      1.00  
    365.25         5      1.01
  1.00E-01   9999999      1.02      1.00  
    365.25         5      1.01
  1.00E-01   9999999      1.02      1.00  
    365.25         5      1.01
  1.00E-01   9999999      1.02      1.00  
    365.25         5      1.01
  1.00E-01   9999999      1.02      1.00  
    365.25         5      1.01
  1.00E-01   9999999      1.02      1.00  
    365.25         5      1.01
  1.00E-01   9999999      1.02      1.00  
    365.25         5      1.01
  1.00E-01   9999999      1.02      1.00  
    365.25         5      1.01
  1.00E-01   9999999      1.02      1.00  
    365.25         5      1.01
  1.00E-01   9999999      1.02      1.00  
    365.25         5      1.01
  1.00E-01   9999999      1.02      1.00  
    365.25         5      1.01
  1.00E-01   9999999      1.02      1.00  
    365.25         5      1.01
  1.00E-01   9999999      1.02      1.00  
    365.25         5      1.01
  1.00E-01   9999999      1.02      1.00  
    365.25         5      1.01
  1.00E-01   9999999      1.02      1.00  
    365.25         5      1.01
  1.00E-01   9999999      1.02      1.00  
    365.25         5      1.01
  1.00E-01   9999999      1.02      1.00  
    365.25         5      1.01
  1.00E-01   9999999      1.02      1.00  
    365.25         5      1.01
  1.00E-01   9999999      1.02      1.00  
    365.25         5      1.01
  1.00E-01   9999999      1.02      1.00  
    365.25         5      1.01
  1.00E-01   9999999      1.02      1.00  
  12783.75        20      1.01
  1.00E-01   9999999      1.02      1.00  
   5844.00        20      1.01
  1.00E-01   9999999      1.02      1.00  
 125280.75       100      1.01
  1.00E-01   9999999      1.02      1.00  
   8400.75        20      1.01
  1.00E-01   9999999      1.02      1.00  
   1095.75         5      1.01
  1.00E-01   9999999      1.02      1.00  
    365.25         5      1.01
  1.00E-01   9999999      1.02      1.00  
   1461.00        10      1.01
  1.00E-01   9999999      1.02      1.00  
    365.25         5      1.01
  1.00E-01   9999999      1.02      1.00  
    365.25         5      1.01
  1.00E-01   9999999      1.02      1.00  
    730.50         5      1.01
  1.00E-01   9999999      1.02      1.00  
    365.25         5      1.01
  1.00E-01   9999999      1.02      1.00  
   1095.75         5      1.01
  1.00E-01   9999999      1.02      1.00  
    730.50         5      1.01
  1.00E-01   9999999      1.02      1.00  
   2922.00        10      1.01
  1.00E-01   9999999      1.02      1.00  
   2556.75        10      1.01
  1.00E-01   9999999      1.02      1.00  
    365.25         5      1.01
  1.00E-01   9999999      1.02      1.00  
    365.25         5      1.01
  1.00E-01   9999999      1.02      1.00  
   6574.50        20      1.01
  1.00E-01   9999999      1.02      1.00  
 182990.25      1000      1.01
  1.00E-01   9999999      1.02      10.0  
