# RCH package for MODFLOW-2005 generated by Flopy 3.3.6
         3        50
         1        -1 # Stress period 74 2016
OPEN/CLOSE                   ./rch/rech_73.ref               1     (FREE) -1 rech_74                       
        -1        -1 
        -1        -1 
        -1        -1 
        -1        -1 
        -1        -1 
        -1        -1 
        -1        -1 
        -1        -1 
        -1        -1 
        -1        -1 
        -1        -1 
         1        -1 # Stress period 75 2017
OPEN/CLOSE                   ./rch/rech_74.ref               1     (FREE) -1 rech_75                       
        -1        -1 
        -1        -1 
        -1        -1 
        -1        -1 
        -1        -1 
        -1        -1 
        -1        -1 
        -1        -1 
        -1        -1 
        -1        -1 
        -1        -1 
         1        -1 # Stress period 76 2018
OPEN/CLOSE                   ./rch/rech_75.ref               1     (FREE) -1 rech_76                       
        -1        -1 
        -1        -1 
        -1        -1 
        -1        -1 
        -1        -1 
        -1        -1 
        -1        -1 
        -1        -1 
        -1        -1 
        -1        -1 
        -1        -1 
         1        -1 # Stress period 77 2019
OPEN/CLOSE                   ./rch/rech_76.ref               1     (FREE) -1 rech_77                       
        -1        -1 
        -1        -1 
        -1        -1 
        -1        -1 
        -1        -1 
        -1        -1 
        -1        -1 
        -1        -1 
        -1        -1 
        -1        -1 
        -1        -1 
         1        -1 # Stress period 78 2020
OPEN/CLOSE                   ./rch/rech_77.ref               1     (FREE) -1 rech_78                       
        -1        -1 
        -1        -1 
        -1        -1 
        -1        -1 
        -1        -1 
        -1        -1 
        -1        -1 
        -1        -1 
        -1        -1 
        -1        -1 
        -1        -1 
         1        -1 # Stress period 79 2021
OPEN/CLOSE                   ./rch/rech_78.ref               1     (FREE) -1 rech_79                       
        -1        -1 
        -1        -1 
        -1        -1 
        -1        -1 
        -1        -1 
        -1        -1 
        -1        -1 
        -1        -1 
        -1        -1 
        -1        -1 
        -1        -1 
         1        -1 # Stress period 79 2022 
OPEN/CLOSE                    ./rch/rch_91_4.ref               1    (FREE)    -1 
        -1        -1 
        -1        -1 
        -1        -1 
        -1        -1 
        -1        -1 
        -1        -1 
        -1        -1 
        -1        -1 
        -1        -1 
        -1        -1 
        -1        -1 
         1        -1  # Stress period 79 2023
OPEN/CLOSE                    ./rch/rch_91_5.ref               1    (FREE)    -1 
        -1        -1 
        -1        -1 
        -1        -1 
        -1        -1 
        -1        -1 
        -1        -1 
        -1        -1 
        -1        -1 
        -1        -1 
        -1        -1 
        -1        -1 
         1        -1  # Stress period 79 2024
OPEN/CLOSE                    ./rch/rch_91_6.ref               1    (FREE)    -1 
        -1        -1 
        -1        -1 
        -1        -1 
        -1        -1 
        -1        -1 
        -1        -1 
        -1        -1 
        -1        -1 
        -1        -1 
        -1        -1 
        -1        -1 
         1        -1  # Stress period 79 2025
OPEN/CLOSE                    ./rch/rch_91_7.ref               1    (FREE)    -1 
        -1        -1 
        -1        -1 
        -1        -1 
        -1        -1 
        -1        -1 
        -1        -1 
        -1        -1 
        -1        -1 
        -1        -1 
        -1        -1 
        -1        -1 
         1        -1  # Stress period 79 2026
OPEN/CLOSE                    ./rch/rch_91_8.ref               1    (FREE)    -1 
        -1        -1 
        -1        -1 
        -1        -1 
        -1        -1 
        -1        -1 
        -1        -1 
        -1        -1 
        -1        -1 
        -1        -1 
        -1        -1 
        -1        -1 
         1        -1  # Stress period 79 2027
OPEN/CLOSE                    ./rch/rch_91_9.ref               1    (FREE)    -1 
        -1        -1 
        -1        -1 
        -1        -1 
        -1        -1 
        -1        -1 
        -1        -1 
        -1        -1 
        -1        -1 
        -1        -1 
        -1        -1 
        -1        -1 
         1        -1  # Stress period 79 2028
OPEN/CLOSE                    ./rch/rch_91_10.ref               1    (FREE)    -1 
        -1        -1 
        -1        -1 
        -1        -1 
         1        -1  # Stress period 79 2029
OPEN/CLOSE                    ./rch/rch_91_11.ref               1    (FREE)    -1 
        -1        -1 
        -1        -1 
        -1        -1 
         1        -1  # Stress period 79 2030
OPEN/CLOSE                    ./rch/rch_91_12.ref               1    (FREE)    -1 
        -1        -1 
        -1        -1 
        -1        -1 
         1        -1  # Stress period 79 2031
OPEN/CLOSE                    ./rch/rch_91_13.ref               1    (FREE)    -1 
        -1        -1 
        -1        -1 
        -1        -1 
         1        -1  # Stress period 79 2032
OPEN/CLOSE                    ./rch/rch_91_14.ref               1    (FREE)    -1 
        -1        -1 
        -1        -1 
        -1        -1 
         1        -1  # Stress period 79 2033
OPEN/CLOSE                    ./rch/rch_91_15.ref               1    (FREE)    -1 
        -1        -1 
        -1        -1 
        -1        -1 
         1        -1  # Stress period 79 2034
OPEN/CLOSE                    ./rch/rch_91_16.ref               1    (FREE)    -1 
        -1        -1 
        -1        -1 
        -1        -1 
         1        -1  # Stress period 79 2035
OPEN/CLOSE                    ./rch/rch_91_17.ref               1    (FREE)    -1 
        -1        -1 
        -1        -1 
        -1        -1 
         1        -1  # Stress period 79 2036
OPEN/CLOSE                    ./rch/rch_91_18.ref               1    (FREE)    -1 
        -1        -1 
        -1        -1 
        -1        -1 
         1        -1  # Stress period 79 2037
OPEN/CLOSE                    ./rch/rch_91_19.ref               1    (FREE)    -1 
        -1        -1 
        -1        -1 
        -1        -1 
        -1        -1 
