P2RBC.spc
P2RGWM.ucn
MT3D001S.UCN
P2Rv9.1.ftl
1
d
n
0.0
d
01/01/2024
00:00:00
8
1
v
../ep1.ref
../ep2.ref
../ep3.ref
../ep4.ref
../ep5.ref
../ep6.ref
../ep7.ref
../ep8.ref
c
0.0
c
0.0
c
0.0
v
../bd1.ref
../bd2.ref
../bd3.ref
../bd4.ref
../bd5.ref
../bd6.ref
../bd7.ref
../bd8.ref
ZONES.inf
88
P2RBC_88.bas
P2RBC_88.bcf
trash.out
zone_mass.out

