# RCH package for MODFLOW-2005 generated by Flopy 3.3.6
         3        50
         1        -1 
OPEN/CLOSE                    ./rch/rech_0.ref               1    (FREE)    -1 
         1        -1 
OPEN/CLOSE                    ./rch/rech_1.ref               1    (FREE)    -1 
         1        -1 
OPEN/CLOSE                    ./rch/rech_2.ref               1    (FREE)    -1 
         1        -1 
OPEN/CLOSE                    ./rch/rech_3.ref               1    (FREE)    -1 
         1        -1 
OPEN/CLOSE                    ./rch/rech_4.ref               1    (FREE)    -1 
         1        -1 
OPEN/CLOSE                    ./rch/rech_5.ref               1    (FREE)    -1 
         1        -1 
OPEN/CLOSE                    ./rch/rech_6.ref               1    (FREE)    -1 
         1        -1 
OPEN/CLOSE                    ./rch/rech_7.ref               1    (FREE)    -1 
         1        -1 
OPEN/CLOSE                    ./rch/rech_8.ref               1    (FREE)    -1 
         1        -1 
OPEN/CLOSE                    ./rch/rech_9.ref               1    (FREE)    -1 
         1        -1 
OPEN/CLOSE                    ./rch/rech_10.ref               1    (FREE)    -1 
         1        -1 
OPEN/CLOSE                    ./rch/rech_11.ref               1    (FREE)    -1 
         1        -1 
OPEN/CLOSE                    ./rch/rech_12.ref               1    (FREE)    -1 
         1        -1 
OPEN/CLOSE                    ./rch/rech_13.ref               1    (FREE)    -1 
         1        -1 
OPEN/CLOSE                    ./rch/rech_14.ref               1    (FREE)    -1 
         1        -1 
OPEN/CLOSE                    ./rch/rech_15.ref               1    (FREE)    -1 
         1        -1 
OPEN/CLOSE                    ./rch/rech_16.ref               1    (FREE)    -1 
         1        -1 
OPEN/CLOSE                    ./rch/rech_17.ref               1    (FREE)    -1 
         1        -1 
OPEN/CLOSE                    ./rch/rech_18.ref               1    (FREE)    -1 
         1        -1 
OPEN/CLOSE                    ./rch/rech_19.ref               1    (FREE)    -1 
         1        -1 
OPEN/CLOSE                    ./rch/rech_20.ref               1    (FREE)    -1 
         1        -1 
OPEN/CLOSE                    ./rch/rech_21.ref               1    (FREE)    -1 
         1        -1 
OPEN/CLOSE                    ./rch/rech_22.ref               1    (FREE)    -1 
         1        -1 
OPEN/CLOSE                    ./rch/rech_23.ref               1    (FREE)    -1 
         1        -1 
OPEN/CLOSE                    ./rch/rech_24.ref               1    (FREE)    -1 
         1        -1 
OPEN/CLOSE                    ./rch/rech_25.ref               1    (FREE)    -1 
         1        -1 
OPEN/CLOSE                    ./rch/rech_26.ref               1    (FREE)    -1 
         1        -1 
OPEN/CLOSE                    ./rch/rech_27.ref               1    (FREE)    -1 
         1        -1 
OPEN/CLOSE                    ./rch/rech_28.ref               1    (FREE)    -1 
         1        -1 
OPEN/CLOSE                    ./rch/rech_29.ref               1    (FREE)    -1 
         1        -1 
OPEN/CLOSE                    ./rch/rech_30.ref               1    (FREE)    -1 
         1        -1 
OPEN/CLOSE                    ./rch/rech_31.ref               1    (FREE)    -1 
         1        -1 
OPEN/CLOSE                    ./rch/rech_32.ref               1    (FREE)    -1 
         1        -1 
OPEN/CLOSE                    ./rch/rech_33.ref               1    (FREE)    -1 
         1        -1 
OPEN/CLOSE                    ./rch/rech_34.ref               1    (FREE)    -1 
         1        -1 
OPEN/CLOSE                    ./rch/rech_35.ref               1    (FREE)    -1 
         1        -1 
OPEN/CLOSE                    ./rch/rech_36.ref               1    (FREE)    -1 
         1        -1 
OPEN/CLOSE                    ./rch/rech_37.ref               1    (FREE)    -1 
         1        -1 
OPEN/CLOSE                    ./rch/rech_38.ref               1    (FREE)    -1 
         1        -1 
OPEN/CLOSE                    ./rch/rech_39.ref               1    (FREE)    -1 
         1        -1 
OPEN/CLOSE                    ./rch/rech_40.ref               1    (FREE)    -1 
         1        -1 
OPEN/CLOSE                    ./rch/rech_41.ref               1    (FREE)    -1 
         1        -1 
OPEN/CLOSE                    ./rch/rech_42.ref               1    (FREE)    -1 
         1        -1 
OPEN/CLOSE                    ./rch/rech_43.ref               1    (FREE)    -1 
         1        -1 
OPEN/CLOSE                    ./rch/rech_44.ref               1    (FREE)    -1 
         1        -1 
OPEN/CLOSE                    ./rch/rech_45.ref               1    (FREE)    -1 
         1        -1 
OPEN/CLOSE                    ./rch/rech_46.ref               1    (FREE)    -1 
         1        -1 
OPEN/CLOSE                    ./rch/rech_47.ref               1    (FREE)    -1 
         1        -1 
OPEN/CLOSE                    ./rch/rech_48.ref               1    (FREE)    -1 
         1        -1 
OPEN/CLOSE                    ./rch/rech_49.ref               1    (FREE)    -1 
         1        -1 
OPEN/CLOSE                    ./rch/rech_50.ref               1    (FREE)    -1 
         1        -1 
OPEN/CLOSE                    ./rch/rech_51.ref               1    (FREE)    -1 
         1        -1 
OPEN/CLOSE                    ./rch/rech_52.ref               1    (FREE)    -1 
         1        -1 
OPEN/CLOSE                    ./rch/rech_53.ref               1    (FREE)    -1 
         1        -1 
OPEN/CLOSE                    ./rch/rech_54.ref               1    (FREE)    -1 
         1        -1 
OPEN/CLOSE                    ./rch/rech_55.ref               1    (FREE)    -1 
         1        -1 
OPEN/CLOSE                    ./rch/rech_56.ref               1    (FREE)    -1 
         1        -1 
OPEN/CLOSE                    ./rch/rech_57.ref               1    (FREE)    -1 
         1        -1 
OPEN/CLOSE                    ./rch/rech_58.ref               1    (FREE)    -1 
         1        -1 
OPEN/CLOSE                    ./rch/rech_59.ref               1    (FREE)    -1 
         1        -1 
OPEN/CLOSE                    ./rch/rech_60.ref               1    (FREE)    -1 
         1        -1 
OPEN/CLOSE                    ./rch/rech_61.ref               1    (FREE)    -1 
         1        -1 
OPEN/CLOSE                    ./rch/rech_62.ref               1    (FREE)    -1 
         1        -1 
OPEN/CLOSE                    ./rch/rech_63.ref               1    (FREE)    -1 
         1        -1 
OPEN/CLOSE                    ./rch/rech_64.ref               1    (FREE)    -1 
         1        -1 
OPEN/CLOSE                    ./rch/rech_65.ref               1    (FREE)    -1 
         1        -1 
OPEN/CLOSE                    ./rch/rech_66.ref               1    (FREE)    -1 
         1        -1 
OPEN/CLOSE                    ./rch/rech_67.ref               1    (FREE)    -1 
         1        -1 
OPEN/CLOSE                    ./rch/rech_68.ref               1    (FREE)    -1 
         1        -1 
OPEN/CLOSE                    ./rch/rech_69.ref               1    (FREE)    -1 
         1        -1 
OPEN/CLOSE                    ./rch/rech_70.ref               1    (FREE)    -1 
         1        -1 
OPEN/CLOSE                    ./rch/rech_71.ref               1    (FREE)    -1 
         1        -1 
OPEN/CLOSE                    ./rch/rech_72.ref               1    (FREE)    -1 
         1        -1 
OPEN/CLOSE                    ./rch/rech_73.ref               1    (FREE)    -1 
         1        -1 
OPEN/CLOSE                    ./rch/rech_74.ref               1    (FREE)    -1 
         1        -1 
OPEN/CLOSE                    ./rch/rech_75.ref               1    (FREE)    -1 
         1        -1 
OPEN/CLOSE                    ./rch/rech_76.ref               1    (FREE)    -1 
         1        -1 
OPEN/CLOSE                    ./rch/rech_77.ref               1    (FREE)    -1 
         1        -1 
OPEN/CLOSE                    ./rch/rech_78.ref               1    (FREE)    -1 
         1        -1 
OPEN/CLOSE                    ./rch/rech_79.ref               1    (FREE)    -1 
         1        -1 
OPEN/CLOSE                    ./rch/rech_80.ref               1    (FREE)    -1 
         1        -1 
OPEN/CLOSE                    ./rch/rech_81.ref               1    (FREE)    -1 
         1        -1 
OPEN/CLOSE                    ./rch/rech_82.ref               1    (FREE)    -1 
         1        -1 
OPEN/CLOSE                    ./rch/rech_83.ref               1    (FREE)    -1 
         1        -1 
OPEN/CLOSE                    ./rch/rech_84.ref               1    (FREE)    -1 
         1        -1 
OPEN/CLOSE                    ./rch/rech_85.ref               1    (FREE)    -1 
         1        -1 
OPEN/CLOSE                    ./rch/rech_86.ref               1    (FREE)    -1 
         1        -1 
OPEN/CLOSE                    ./rch/rech_87.ref               1    (FREE)    -1 
         1        -1 
OPEN/CLOSE                    ./rch/rech_88.ref               1    (FREE)    -1 
         1        -1 
OPEN/CLOSE                    ./rch/rech_89.ref               1    (FREE)    -1 
         1        -1 
OPEN/CLOSE                    ./rch/rech_90.ref               1    (FREE)    -1 
         1        -1 
OPEN/CLOSE                    ./rch/rech_91.ref               1    (FREE)    -1 
         1        -1 
OPEN/CLOSE                    ./rch/rech_92.ref               1    (FREE)    -1 
         1        -1 
OPEN/CLOSE                    ./rch/rech_93.ref               1    (FREE)    -1 
         1        -1 
OPEN/CLOSE                    ./rch/rech_94.ref               1    (FREE)    -1 
         1        -1 
OPEN/CLOSE                    ./rch/rech_95.ref               1    (FREE)    -1 
         1        -1 
OPEN/CLOSE                    ./rch/rech_96.ref               1    (FREE)    -1 
         1        -1 
OPEN/CLOSE                    ./rch/rech_97.ref               1    (FREE)    -1 
         1        -1 
OPEN/CLOSE                    ./rch/rech_98.ref               1    (FREE)    -1 
         1        -1 
OPEN/CLOSE                    ./rch/rech_99.ref               1    (FREE)    -1 
         1        -1 
OPEN/CLOSE                    ./rch/rech_100.ref               1    (FREE)    -1 
         1        -1 
OPEN/CLOSE                    ./rch/rech_101.ref               1    (FREE)    -1 
         1        -1 
OPEN/CLOSE                    ./rch/rech_102.ref               1    (FREE)    -1 
         1        -1 
OPEN/CLOSE                    ./rch/rech_103.ref               1    (FREE)    -1 
         1        -1 
OPEN/CLOSE                    ./rch/rech_104.ref               1    (FREE)    -1 
         1        -1 
OPEN/CLOSE                    ./rch/rech_105.ref               1    (FREE)    -1 
         1        -1 
OPEN/CLOSE                    ./rch/rech_106.ref               1    (FREE)    -1 
         1        -1 
OPEN/CLOSE                    ./rch/rech_107.ref               1    (FREE)    -1 
         1        -1 
OPEN/CLOSE                    ./rch/rech_108.ref               1    (FREE)    -1 
         1        -1 
OPEN/CLOSE                    ./rch/rech_109.ref               1    (FREE)    -1 
         1        -1 
OPEN/CLOSE                    ./rch/rech_110.ref               1    (FREE)    -1 
         1        -1 
OPEN/CLOSE                    ./rch/rech_111.ref               1    (FREE)    -1 
         1        -1 
OPEN/CLOSE                    ./rch/rech_112.ref               1    (FREE)    -1 
         1        -1 
OPEN/CLOSE                    ./rch/rech_113.ref               1    (FREE)    -1 
         1        -1 
OPEN/CLOSE                    ./rch/rech_114.ref               1    (FREE)    -1 
         1        -1 
OPEN/CLOSE                    ./rch/rech_115.ref               1    (FREE)    -1 
         1        -1 
OPEN/CLOSE                    ./rch/rech_116.ref               1    (FREE)    -1 
         1        -1 
OPEN/CLOSE                    ./rch/rech_117.ref               1    (FREE)    -1 
         1        -1 
OPEN/CLOSE                    ./rch/rech_118.ref               1    (FREE)    -1 
         1        -1 
OPEN/CLOSE                    ./rch/rech_119.ref               1    (FREE)    -1 
         1        -1 
OPEN/CLOSE                    ./rch/rech_120.ref               1    (FREE)    -1 
         1        -1           # Stress Period 122 January 2022
OPEN/CLOSE                    ./rch/rch_91_4.ref               1    (FREE)    -1    
        -1        -1
        -1        -1
        -1        -1
        -1        -1
        -1        -1
        -1        -1
        -1        -1
        -1        -1
        -1        -1
        -1        -1
        -1        -1
         1        -1           # Stress Period 122 January 2023
OPEN/CLOSE                    ./rch/rch_91_5.ref               1    (FREE)    -1    
        -1        -1
        -1        -1
        -1        -1
        -1        -1
        -1        -1
        -1        -1
        -1        -1
        -1        -1
        -1        -1
        -1        -1
        -1        -1
         1        -1           # Stress Period 134 January 2024
OPEN/CLOSE                    ./rch/rch_91_6.ref               1    (FREE)    -1    
        -1        -1
        -1        -1
        -1        -1
        -1        -1
        -1        -1
        -1        -1
        -1        -1
        -1        -1
        -1        -1
        -1        -1
        -1        -1
         1        -1           # Stress Period 146 January 2025
OPEN/CLOSE                    ./rch/rch_91_7.ref               1    (FREE)    -1    
        -1        -1
        -1        -1
        -1        -1
        -1        -1
        -1        -1
        -1        -1
        -1        -1
        -1        -1
        -1        -1
        -1        -1
        -1        -1
         1        -1           # Stress Period 158 January 2026
OPEN/CLOSE                    ./rch/rch_91_8.ref               1    (FREE)    -1    
        -1        -1
        -1        -1
        -1        -1
        -1        -1
        -1        -1
        -1        -1
        -1        -1
        -1        -1
        -1        -1
        -1        -1
        -1        -1
         1        -1           # Stress Period 170 January 2027
OPEN/CLOSE                    ./rch/rch_91_9.ref               1    (FREE)    -1    
        -1        -1
        -1        -1
        -1        -1
        -1        -1
        -1        -1
        -1        -1
        -1        -1
        -1        -1
        -1        -1
        -1        -1
        -1        -1
         1        -1           # Stress Period 182 January 2028
OPEN/CLOSE                    ./rch/rch_91_10.ref               1    (FREE)    -1    
        -1        -1
        -1        -1
        -1        -1
         1        -1           # Stress Period 186 January 2029
OPEN/CLOSE                    ./rch/rch_91_11.ref               1    (FREE)    -1    
        -1        -1
        -1        -1
        -1        -1
         1        -1           # Stress Period 190 January 2030
OPEN/CLOSE                    ./rch/rch_91_12.ref               1    (FREE)    -1    
        -1        -1
        -1        -1
        -1        -1
         1        -1           # Stress Period 194 January 2031
OPEN/CLOSE                    ./rch/rch_91_13.ref               1    (FREE)    -1    
        -1        -1
        -1        -1
        -1        -1
         1        -1           # Stress Period 200 January 2032
OPEN/CLOSE                    ./rch/rch_91_14.ref               1    (FREE)    -1    
        -1        -1
        -1        -1
        -1        -1
         1        -1           # Stress Period 204 January 2033
OPEN/CLOSE                    ./rch/rch_91_15.ref               1    (FREE)    -1    
        -1        -1
        -1        -1
        -1        -1
         1        -1           # Stress Period 208 January 2034
OPEN/CLOSE                    ./rch/rch_91_16.ref               1    (FREE)    -1    
        -1        -1
        -1        -1
        -1        -1
         1        -1           # Stress Period 212 January 2035
OPEN/CLOSE                    ./rch/rch_91_17.ref               1    (FREE)    -1    
        -1        -1
        -1        -1
        -1        -1
         1        -1           # Stress Period 216 January 2036
OPEN/CLOSE                    ./rch/rch_91_18.ref               1    (FREE)    -1    
        -1        -1
        -1        -1
        -1        -1
         1        -1           # Stress Period 220 January 2037
OPEN/CLOSE                    ./rch/rch_91_19.ref               1    (FREE)    -1    
        -1        -1
        -1        -1
        -1        -1
