## BTN for MT3DMS, generated by Flopy.
##
NOWETDRYPRINT DRYCELL
         7       244       232       232         1         1         1
D  M  KG    
T T T T T 
 1 1 1 1 1 1 1
      2001         1         (232E15.6)        -1 #delr
      2002         1         (244E15.6)        -1 #delc
      2003         1         (232E15.6)         0 #htop
      2004         1         (232E15.6)        -1 #dz_layer_0
      2005         1         (232E15.6)        -1 #dz_layer_1
      2006         1         (232E15.6)        -1 #dz_layer_2
      2007         1         (232E15.6)        -1 #dz_layer_3
      2008         1         (232E15.6)        -1 #dz_layer_4
      2009         1         (232E15.6)        -1 #dz_layer_5
      2010         1         (232E15.6)        -1 #dz_layer_6
      2011         1         (232E15.6)        -1 #prsity_layer_0
      2012         1         (232E15.6)        -1 #prsity_layer_1
      2013         1         (232E15.6)        -1 #prsity_layer_2
      2014         1         (232E15.6)        -1 #prsity_layer_3
      2015         1         (232E15.6)        -1 #prsity_layer_4
      2016         1         (232E15.6)        -1 #prsity_layer_5
      2017         1         (232E15.6)        -1 #prsity_layer_6
      2018         1           (232I10)        -1 #icbund_layer_0
      2019         1           (232I10)        -1 #icbund_layer_1
      2020         1           (232I10)        -1 #icbund_layer_2
      2021         1           (232I10)        -1 #icbund_layer_3
      2022         1           (232I10)        -1 #icbund_layer_4
      2023         1           (232I10)        -1 #icbund_layer_5
      2024         1           (232I10)        -1 #icbund_layer_6
      2025      1000         (232E15.6)        -1 #sconc1_layer_0
      2026      1000         (232E15.6)        -1 #sconc1_layer_1
      2027      1000         (232E15.6)        -1 #sconc1_layer_2
      2028      1000         (232E15.6)        -1 #sconc1_layer_3
      2029      1000         (232E15.6)        -1 #sconc1_layer_4
      2030      1000         (232E15.6)        -1 #sconc1_layer_5
      2031      1000         (232E15.6)        -1 #sconc1_layer_6
    -1E+00  1.00E-07
         0         0         0         0         T
       233
      0.01      31.0      60.0      91.0     121.0     152.0     182.0     213.0
     244.0     274.0     305.0     335.0     366.0     397.0     425.0     456.0
     486.0     517.0     547.0     578.0     609.0     639.0     670.0     700.0
     731.0     762.0     790.0     821.0     851.0     882.0     912.0     943.0
     974.0    1004.0    1035.0    1065.0    1096.0    1127.0    1155.0    1186.0
    1216.0    1247.0    1277.0    1308.0    1339.0    1369.0    1400.0    1430.0
    1461.0    1492.0    1521.0    1552.0    1582.0    1613.0    1643.0    1674.0
    1705.0    1735.0    1766.0    1796.0    1827.0    1858.0    1886.0    1917.0
    1947.0    1978.0    2008.0    2039.0    2070.0    2100.0    2131.0    2161.0
    2192.0    2223.0    2251.0    2282.0    2312.0    2343.0    2373.0    2404.0
    2435.0    2465.0    2496.0    2526.0    2557.0    2588.0    2616.0    2647.0
    2677.0    2708.0    2738.0    2769.0    2800.0    2830.0    2861.0    2891.0
    2922.0    2953.0    2982.0    3013.0    3043.0    3074.0    3104.0    3135.0
    3166.0    3196.0    3227.0    3257.0    3288.0    3319.0    3347.0    3378.0
    3408.0    3439.0    3469.0    3500.0    3531.0    3561.0    3592.0    3622.0
    3653.0    3684.0    3712.0    3743.0    3773.0    3804.0    3834.0    3865.0
    3896.0    3926.0    3957.0    3987.0    4018.0    4049.0    4077.0    4108.0
    4138.0    4169.0    4199.0    4230.0    4261.0    4291.0    4322.0    4352.0
    4383.0    4414.0    4443.0    4474.0    4504.0    4535.0    4565.0    4596.0
    4627.0    4657.0    4688.0    4718.0    4749.0    4780.0    4808.0    4839.0
    4869.0    4900.0    4930.0    4961.0    4992.0    5022.0    5053.0    5083.0
    5114.0    5145.0    5173.0    5204.0    5234.0    5265.0    5295.0    5326.0
    5357.0    5387.0    5418.0    5448.0    5479.0    5510.0    5538.0    5569.0
    5599.0    5630.0    5660.0    5691.0    5722.0    5752.0    5783.0    5813.0
    5844.0    5935.0    6026.0    6118.0    6210.0    6300.0    6391.0    6483.0
    6575.0    6665.0    6756.0    6848.0    6940.0    7030.0    7121.0    7213.0
    7305.0    7396.0    7487.0    7579.0    7671.0    7761.0    7852.0    7944.0
    8036.0    8126.0    8217.0    8309.0    8401.0    8491.0    8582.0    8674.0
    8766.0    8857.0    8948.0    9040.0    9132.0    9222.0    9313.0    9405.0
    9497.0                            
         0         0
         T       100
        31         1      1.01  
       0.1   9999999      1.02         2
        29         1      1.01  
       0.1   9999999      1.02         2
        31         1      1.01  
       0.1   9999999      1.02         2
        30         1      1.01  
       0.1   9999999      1.02         2
        31         1      1.01  
       0.1   9999999      1.02         2
        30         1      1.01  
       0.1   9999999      1.02         2
        31         1      1.01  
       0.1   9999999      1.02         2
        31         1      1.01  
       0.1   9999999      1.02         2
        30         1      1.01  
       0.1   9999999      1.02         2
        31         1      1.01  
       0.1   9999999      1.02         2
        30         1      1.01  
       0.1   9999999      1.02         2
        31         1      1.01  
       0.1   9999999      1.02         2
        31         1      1.01  
       0.1   9999999      1.02         2
        28         1      1.01  
       0.1   9999999      1.02         2
        31         1      1.01  
       0.1   9999999      1.02         2
        30         1      1.01  
       0.1   9999999      1.02         2
        31         1      1.01  
       0.1   9999999      1.02         2
        30         1      1.01  
       0.1   9999999      1.02         2
        31         1      1.01  
       0.1   9999999      1.02         2
        31         1      1.01  
       0.1   9999999      1.02         2
        30         1      1.01  
       0.1   9999999      1.02         2
        31         1      1.01  
       0.1   9999999      1.02         2
        30         1      1.01  
       0.1   9999999      1.02         2
        31         1      1.01  
       0.1   9999999      1.02         2
        31         1      1.01  
       0.1   9999999      1.02         2
        28         1      1.01  
       0.1   9999999      1.02         2
        31         1      1.01  
       0.1   9999999      1.02         2
        30         1      1.01  
       0.1   9999999      1.02         2
        31         1      1.01  
       0.1   9999999      1.02         2
        30         1      1.01  
       0.1   9999999      1.02         2
        31         1      1.01  
       0.1   9999999      1.02         2
        31         1      1.01  
       0.1   9999999      1.02         2
        30         1      1.01  
       0.1   9999999      1.02         2
        31         1      1.01  
       0.1   9999999      1.02         2
        30         1      1.01  
       0.1   9999999      1.02         2
        31         1      1.01  
       0.1   9999999      1.02         2
        31         1      1.01  
       0.1   9999999      1.02         2
        28         1      1.01  
       0.1   9999999      1.02         2
        31         1      1.01  
       0.1   9999999      1.02         2
        30         1      1.01  
       0.1   9999999      1.02         2
        31         1      1.01  
       0.1   9999999      1.02         2
        30         1      1.01  
       0.1   9999999      1.02         2
        31         1      1.01  
       0.1   9999999      1.02         2
        31         1      1.01  
       0.1   9999999      1.02         2
        30         1      1.01  
       0.1   9999999      1.02         2
        31         1      1.01  
       0.1   9999999      1.02         2
        30         1      1.01  
       0.1   9999999      1.02         2
        31         1      1.01  
       0.1   9999999      1.02         2
        31         1      1.01  
       0.1   9999999      1.02         2
        29         1      1.01  
       0.1   9999999      1.02         2
        31         1      1.01  
       0.1   9999999      1.02         2
        30         1      1.01  
       0.1   9999999      1.02         2
        31         1      1.01  
       0.1   9999999      1.02         2
        30         1      1.01  
       0.1   9999999      1.02         2
        31         1      1.01  
       0.1   9999999      1.02         2
        31         1      1.01  
       0.1   9999999      1.02         2
        30         1      1.01  
       0.1   9999999      1.02         2
        31         1      1.01  
       0.1   9999999      1.02         2
        30         1      1.01  
       0.1   9999999      1.02         2
        31         1      1.01  
       0.1   9999999      1.02         2
        31         1      1.01  
       0.1   9999999      1.02         2
        28         1      1.01  
       0.1   9999999      1.02         2
        31         1      1.01  
       0.1   9999999      1.02         2
        30         1      1.01  
       0.1   9999999      1.02         2
        31         1      1.01  
       0.1   9999999      1.02         2
        30         1      1.01  
       0.1   9999999      1.02         2
        31         1      1.01  
       0.1   9999999      1.02         2
        31         1      1.01  
       0.1   9999999      1.02         2
        30         1      1.01  
       0.1   9999999      1.02         2
        31         1      1.01  
       0.1   9999999      1.02         2
        30         1      1.01  
       0.1   9999999      1.02         2
        31         1      1.01  
       0.1   9999999      1.02         2
        31         1      1.01  
       0.1   9999999      1.02         2
        28         1      1.01  
       0.1   9999999      1.02         2
        31         1      1.01  
       0.1   9999999      1.02         2
        30         1      1.01  
       0.1   9999999      1.02         2
        31         1      1.01  
       0.1   9999999      1.02         2
        30         1      1.01  
       0.1   9999999      1.02         2
        31         1      1.01  
       0.1   9999999      1.02         2
        31         1      1.01  
       0.1   9999999      1.02         2
        30         1      1.01  
       0.1   9999999      1.02         2
        31         1      1.01  
       0.1   9999999      1.02         2
        30         1      1.01  
       0.1   9999999      1.02         2
        31         1      1.01  
       0.1   9999999      1.02         2
        31         1      1.01  
       0.1   9999999      1.02         2
        28         1      1.01  
       0.1   9999999      1.02         2
        31         1      1.01  
       0.1   9999999      1.02         2
        30         1      1.01  
       0.1   9999999      1.02         2
        31         1      1.01  
       0.1   9999999      1.02         2
        30         1      1.01  
       0.1   9999999      1.02         2
        31         1      1.01  
       0.1   9999999      1.02         2
        31         1      1.01  
       0.1   9999999      1.02         2
        30         1      1.01  
       0.1   9999999      1.02         2
        31         1      1.01  
       0.1   9999999      1.02         2
        30         1      1.01  
       0.1   9999999      1.02         2
        31         1      1.01  
       0.1   9999999      1.02         2
        31         1      1.01  
       0.1   9999999      1.02         2
        29         1      1.01  
       0.1   9999999      1.02         2
        31         1      1.01  
       0.1   9999999      1.02         2
        30         1      1.01  
       0.1   9999999      1.02         2
        31         1      1.01  
       0.1   9999999      1.02         2
        30         1      1.01  
       0.1   9999999      1.02         2
        31         1      1.01  
       0.1   9999999      1.02         2
        31         1      1.01  
       0.1   9999999      1.02         2
        30         1      1.01  
       0.1   9999999      1.02         2
        31         1      1.01  
       0.1   9999999      1.02         2
        30         1      1.01  
       0.1   9999999      1.02         2
        31         1      1.01  
       0.1   9999999      1.02         2
        31         1      1.01  
       0.1   9999999      1.02         2
        28         1      1.01  
       0.1   9999999      1.02         2
        31         1      1.01  
       0.1   9999999      1.02         2
        30         1      1.01  
       0.1   9999999      1.02         2
        31         1      1.01  
       0.1   9999999      1.02         2
        30         1      1.01  
       0.1   9999999      1.02         2
        31         1      1.01  
       0.1   9999999      1.02         2
        31         1      1.01  
       0.1   9999999      1.02         2
        30         1      1.01  
       0.1   9999999      1.02         2
        31         1      1.01  
       0.1   9999999      1.02         2
        30         1      1.01  
       0.1   9999999      1.02         2
        31         1      1.01  
       0.1   9999999      1.02         2
        31         1      1.01  
       0.1   9999999      1.02         2
        28         1      1.01  
       0.1   9999999      1.02         2
        31         1      1.01  
       0.1   9999999      1.02         2
        30         1      1.01  
       0.1   9999999      1.02         2
        31         1      1.01  
       0.1   9999999      1.02         2
        30         1      1.01  
       0.1   9999999      1.02         2
        31         1      1.01  
       0.1   9999999      1.02         2
        31         1      1.01  
       0.1   9999999      1.02         2
        30         1      1.01  
       0.1   9999999      1.02         2
        31         1      1.01  
       0.1   9999999      1.02         2
        30         1      1.01  
       0.1   9999999      1.02         2
        31         1      1.01  
       0.1   9999999      1.02         2
        31         1      1.01  
       0.1   9999999      1.02         2
        28         1      1.01  
       0.1   9999999      1.02         2
        31         1      1.01  
       0.1   9999999      1.02         2
        30         1      1.01  
       0.1   9999999      1.02         2
        31         1      1.01  
       0.1   9999999      1.02         2
        30         1      1.01  
       0.1   9999999      1.02         2
        31         1      1.01  
       0.1   9999999      1.02         2
        31         1      1.01  
       0.1   9999999      1.02         2
        30         1      1.01  
       0.1   9999999      1.02         2
        31         1      1.01  
       0.1   9999999      1.02         2
        30         1      1.01  
       0.1   9999999      1.02         2
        31         1      1.01  
       0.1   9999999      1.02         2
        31         1      1.01  
       0.1   9999999      1.02         2
        29         1      1.01  
       0.1   9999999      1.02         2
        31         1      1.01  
       0.1   9999999      1.02         2
        30         1      1.01  
       0.1   9999999      1.02         2
        31         1      1.01  
       0.1   9999999      1.02         2
        30         1      1.01  
       0.1   9999999      1.02         2
        31         1      1.01  
       0.1   9999999      1.02         2
        31         1      1.01  
       0.1   9999999      1.02         2
        30         1      1.01  
       0.1   9999999      1.02         2
        31         1      1.01  
       0.1   9999999      1.02         2
        30         1      1.01  
       0.1   9999999      1.02         2
        31         1      1.01  
       0.1   9999999      1.02         2
        31         1      1.01  
       0.1   9999999      1.02         2
        28         1      1.01  
       0.1   9999999      1.02         2
        31         1      1.01  
       0.1   9999999      1.02         2
        30         1      1.01  
       0.1   9999999      1.02         2
        31         1      1.01  
       0.1   9999999      1.02         2
        30         1      1.01  
       0.1   9999999      1.02         2
        31         1      1.01  
       0.1   9999999      1.02         2
        31         1      1.01  
       0.1   9999999      1.02         2
        30         1      1.01  
       0.1   9999999      1.02         2
        31         1      1.01  
       0.1   9999999      1.02         2
        30         1      1.01  
       0.1   9999999      1.02         2
        31         1      1.01  
       0.1   9999999      1.02         2
        31         1      1.01  
       0.1   9999999      1.02         2
        28         1      1.01  
       0.1   9999999      1.02         2
        31         1      1.01  
       0.1   9999999      1.02         2
        30         1      1.01  
       0.1   9999999      1.02         2
        31         1      1.01  
       0.1   9999999      1.02         2
        30         1      1.01  
       0.1   9999999      1.02         2
        31         1      1.01  
       0.1   9999999      1.02         2
        31         1      1.01  
       0.1   9999999      1.02         2
        30         1      1.01  
       0.1   9999999      1.02         2
        31         1      1.01  
       0.1   9999999      1.02         2
        30         1      1.01  
       0.1   9999999      1.02         2
        31         1      1.01  
       0.1   9999999      1.02         2
        31         1      1.01  
       0.1   9999999      1.02         2
        28         1      1.01  
       0.1   9999999      1.02         2
        31         1      1.01  
       0.1   9999999      1.02         2
        30         1      1.01  
       0.1   9999999      1.02         2
        31         1      1.01  
       0.1   9999999      1.02         2
        30         1      1.01  
       0.1   9999999      1.02         2
        31         1      1.01  
       0.1   9999999      1.02         2
        31         1      1.01  
       0.1   9999999      1.02         2
        30         1      1.01  
       0.1   9999999      1.02         2
        31         1      1.01  
       0.1   9999999      1.02         2
        30         1      1.01  
       0.1   9999999      1.02         2
        31         1      1.01  
       0.1   9999999      1.02         2
        91         1      1.01  
       0.1   9999999      1.02         2
        91         1      1.01  
       0.1   9999999      1.02         2
        92         1      1.01  
       0.1   9999999      1.02         2
        92         1      1.01  
       0.1   9999999      1.02         2
        90         1      1.01  
       0.1   9999999      1.02         2
        91         1      1.01  
       0.1   9999999      1.02         2
        92         1      1.01  
       0.1   9999999      1.02         2
        92         1      1.01  
       0.1   9999999      1.02         2
        90         1      1.01  
       0.1   9999999      1.02         2
        91         1      1.01  
       0.1   9999999      1.02         2
        92         1      1.01  
       0.1   9999999      1.02         2
        92         1      1.01  
       0.1   9999999      1.02         2
        90         1      1.01  
       0.1   9999999      1.02         2
        91         1      1.01  
       0.1   9999999      1.02         2
        92         1      1.01  
       0.1   9999999      1.02         2
        92         1      1.01  
       0.1   9999999      1.02         2
        91         1      1.01  
       0.1   9999999      1.02         2
        91         1      1.01  
       0.1   9999999      1.02         2
        92         1      1.01  
       0.1   9999999      1.02         2
        92         1      1.01  
       0.1   9999999      1.02         2
        90         1      1.01  
       0.1   9999999      1.02         2
        91         1      1.01  
       0.1   9999999      1.02         2
        92         1      1.01  
       0.1   9999999      1.02         2
        92         1      1.01  
       0.1   9999999      1.02         2
        90         1      1.01  
       0.1   9999999      1.02         2
        91         1      1.01  
       0.1   9999999      1.02         2
        92         1      1.01  
       0.1   9999999      1.02         2
        92         1      1.01  
       0.1   9999999      1.02         2
        90         1      1.01  
       0.1   9999999      1.02         2
        91         1      1.01  
       0.1   9999999      1.02         2
        92         1      1.01  
       0.1   9999999      1.02         2
        92         1      1.01  
       0.1   9999999      1.02         2
        91         1      1.01  
       0.1   9999999      1.02         2
        91         1      1.01  
       0.1   9999999      1.02         2
        92         1      1.01  
       0.1   9999999      1.02         2
        92         1      1.01  
       0.1   9999999      1.02         2
        90         1      1.01  
       0.1   9999999      1.02         2
        91         1      1.01  
       0.1   9999999      1.02         2
        92         1      1.01  
       0.1   9999999      1.02         2
        92         1      1.01  
       0.1   9999999      1.02         2
        90         1      1.01  
       0.1   9999999      1.02         2
        91         1      1.01  
       0.1   9999999      1.02         2
        92         1      1.01  
       0.1   9999999      1.02         2
        92         1      1.01  
       0.1   9999999      1.02         2
        90         1      1.01  
       0.1   9999999      1.02         2
        91         1      1.01  
       0.1   9999999      1.02         2
        92         1      1.01  
       0.1   9999999      1.02         2
        92         1      1.01  
       0.1   9999999      1.02         2
        91         1      1.01  
       0.1   9999999      1.02         2
        91         1      1.01  
       0.1   9999999      1.02         2
        92         1      1.01  
       0.1   9999999      1.02         2
        92         1      1.01  
       0.1   9999999      1.02         2
        90         1      1.01  
       0.1   9999999      1.02         2
        91         1      1.01  
       0.1   9999999      1.02         2
        92         1      1.01  
       0.1   9999999      1.02         2
        92         1      1.01  
       0.1   9999999      1.02         2
        90         1      1.01  
       0.1   9999999      1.02         2
        91         1      1.01  
       0.1   9999999      1.02         2
        92         1      1.01  
       0.1   9999999      1.02         2
        92         1      1.01  
       0.1   9999999      1.02         2
        90         1      1.01  
       0.1   9999999      1.02         2
        91         1      1.01  
       0.1   9999999      1.02         2
        92         1      1.01  
       0.1   9999999      1.02         2
        92         1      1.01  
       0.1   9999999      1.02         2
        91         1      1.01  
       0.1   9999999      1.02         2
        91         1      1.01  
       0.1   9999999      1.02         2
        92         1      1.01  
       0.1   9999999      1.02         2
        92         1      1.01  
       0.1   9999999      1.02         2
        90         1      1.01  
       0.1   9999999      1.02         2
        91         1      1.01  
       0.1   9999999      1.02         2
        92         1      1.01  
       0.1   9999999      1.02         2
        92         1      1.01  
       0.1   9999999      1.02         2
        90         1      1.01  
       0.1   9999999      1.02         2
        91         1      1.01  
       0.1   9999999      1.02         2
        92         1      1.01  
       0.1   9999999      1.02         2
        92         1      1.01  
       0.1   9999999      1.02         2
        90         1      1.01  
       0.1   9999999      1.02         2
        91         1      1.01  
       0.1   9999999      1.02         2
        92         1      1.01  
       0.1   9999999      1.02         2
        92         1      1.01  
       0.1   9999999      1.02         2
        91         1      1.01  
       0.1   9999999      1.02         2
        91         1      1.01  
       0.1   9999999      1.02         2
        92         1      1.01  
       0.1   9999999      1.02         2
        92         1      1.01  
       0.1   9999999      1.02         2
        90         1      1.01  
       0.1   9999999      1.02         2
        91         1      1.01  
       0.1   9999999      1.02         2
        92         1      1.01  
       0.1   9999999      1.02         2
        92         1      1.01  
       0.1   9999999      1.02         2
        90         1      1.01  
       0.1   9999999      1.02         2
        91         1      1.01  
       0.1   9999999      1.02         2
        92         1      1.01  
       0.1   9999999      1.02         2
        92         1      1.01  
       0.1   9999999      1.02         2
        90         1      1.01  
       0.1   9999999      1.02         2
        91         1      1.01  
       0.1   9999999      1.02         2
        92         1      1.01  
       0.1   9999999      1.02         2
        92         1      1.01  
       0.1   9999999      1.02         2
        91         1      1.01  
       0.1   9999999      1.02         2
        91         1      1.01  
       0.1   9999999      1.02         2
        92         1      1.01  
       0.1   9999999      1.02         2
        92         1      1.01  
       0.1   9999999      1.02         2
        90         1      1.01  
       0.1   9999999      1.02         2
        91         1      1.01  
       0.1   9999999      1.02         2
        92         1      1.01  
       0.1   9999999      1.02         2
        92         1      1.01  
       0.1   9999999      1.02         2
        90         1      1.01  
       0.1   9999999      1.02         2
        91         1      1.01  
       0.1   9999999      1.02         2
        92         1      1.01  
       0.1   9999999      1.02         2
        92         1      1.01  
       0.1   9999999      1.02         2
        90         1      1.01  
       0.1   9999999      1.02         2
        91         1      1.01  
       0.1   9999999      1.02         2
        92         1      1.01  
       0.1   9999999      1.02         2
        92         1      1.01  
       0.1   9999999      1.02         2
